/*---------------------------------------------------------------------------*\
  =========                 |
  \\      /  F ield         | OpenFOAM: The Open Source CFD Toolbox
   \\    /   O peration     | Website:  https://openfoam.org
    \\  /    A nd           | Version:  7
     \\/     M anipulation  |
\*---------------------------------------------------------------------------*/
Build  : 7-1ff648926f77
Exec   : interFoam
Date   : Jun 21 2021
Time   : 15:53:50
Host   : "ubuntu"
PID    : 7903
I/O    : uncollated
Case   : /home/user/Desktop/OFSolvers/isoAdvector/baseCase2
nProcs : 1
sigFpe : Enabling floating point exception trapping (FOAM_SIGFPE).
fileModificationChecking : Monitoring run-time modified files using timeStampMaster (fileModificationSkew 10)
allowSystemOperations : Allowing user-supplied system call operations

// * * * * * * * * * * * * * * * * * * * * * * * * * * * * * * * * * * * * * //
Create time

--> FOAM Warning : 
    From function void* Foam::dlOpen(const Foam::fileName&, bool)
    in file POSIX.C at line 1251
    dlopen error : libVOFInterpolationSchemes.so: cannot open shared object file: No such file or directory
--> FOAM Warning : 
    From function bool Foam::dlLibraryTable::open(const Foam::fileName&, bool)
    in file db/dynamicLibrary/dlLibraryTable/dlLibraryTable.C at line 105
    could not load "libVOFInterpolationSchemes.so"
Create mesh for time = 0


PIMPLE: No convergence criteria found


PIMPLE: Operating solver in transient mode with 1 outer corrector
PIMPLE: Operating solver in PISO mode


Reading field p_rgh

Reading field U

Reading/calculating face flux field phi

Reading transportProperties

Selecting incompressible transport model Newtonian
Selecting incompressible transport model Newtonian
Selecting turbulence model type laminar
Selecting laminar stress model Stokes

Reading g

Reading hRef
Calculating field g.h

No MRF models present

No finite volume options present
time step continuity errors : sum local = 1.4207385268249e-18, global = -9.0147796634922e-19, cumulative = -9.0147796634922e-19
Courant Number mean: 0.029999999999999 max: 0.030000000000001

Starting time loop

Courant Number mean: 0.029999999999999 max: 0.030000000000001
Interface Courant Number mean: 0.00013999999999999 max: 0.03
deltaT = 0.0011904761904762
Time = 0.00119048

smoothSolver:  Solving for alpha.water, Initial residual = 0.0019844232954129, Final residual = 1.2178937181872e-17, No Iterations 1
Phase-1 volume fraction = 0.012968910267778  Min(alpha.water) = 0  Max(alpha.water) = 0.9999999999988
MULES: Correcting alpha.water
MULES: Correcting alpha.water
Phase-1 volume fraction = 0.012968910267778  Min(alpha.water) = -3.2619887264746e-14  Max(alpha.water) = 0.99999999999879
ExecutionTime = 0.04 s  ClockTime = 0 s

Courant Number mean: 0.035714285714284 max: 0.035714285714286
Interface Courant Number mean: 0.00022023809523808 max: 0.035714285714286
deltaT = 0.0014115646258503
Time = 0.00260204

smoothSolver:  Solving for alpha.water, Initial residual = 0.0023517516669855, Final residual = 1.4579376310077e-17, No Iterations 1
Phase-1 volume fraction = 0.012968910267778  Min(alpha.water) = 0  Max(alpha.water) = 0.99999999999428
MULES: Correcting alpha.water
MULES: Correcting alpha.water
Phase-1 volume fraction = 0.012968910267778  Min(alpha.water) = -3.7655714201091e-14  Max(alpha.water) = 0.99999999999425
ExecutionTime = 0.04 s  ClockTime = 0 s

Courant Number mean: 0.042346938775509 max: 0.042346938775511
Interface Courant Number mean: 0.00031054421768705 max: 0.04234693877551
deltaT = 0.0016792751583392
Time = 0.00428132

smoothSolver:  Solving for alpha.water, Initial residual = 0.0027946608858306, Final residual = 1.7757620094474e-17, No Iterations 1
Phase-1 volume fraction = 0.012968910267778  Min(alpha.water) = 0  Max(alpha.water) = 0.99999999997912
MULES: Correcting alpha.water
MULES: Correcting alpha.water
Phase-1 volume fraction = 0.012968910267778  Min(alpha.water) = -1.4741169376052e-13  Max(alpha.water) = 0.99999999997898
ExecutionTime = 0.05 s  ClockTime = 0 s

Courant Number mean: 0.050378254750174 max: 0.050378254750177
Interface Courant Number mean: 0.00037783691062629 max: 0.050378254750176
deltaT = 0.0019941392505278
Time = 0.00627546

smoothSolver:  Solving for alpha.water, Initial residual = 0.0033121128252593, Final residual = 1.7745715958627e-17, No Iterations 1
Phase-1 volume fraction = 0.012968910267778  Min(alpha.water) = 0  Max(alpha.water) = 0.99999999993196
MULES: Correcting alpha.water
MULES: Correcting alpha.water
Phase-1 volume fraction = 0.012968910267778  Min(alpha.water) = -5.1315143111716e-13  Max(alpha.water) = 0.99999999993143
ExecutionTime = 0.05 s  ClockTime = 0 s

Courant Number mean: 0.059824177515832 max: 0.059824177515835
Interface Courant Number mean: 0.00050850550888455 max: 0.059824177515834
deltaT = 0.0023431136193702
Time = 0.00861857

smoothSolver:  Solving for alpha.water, Initial residual = 0.0038817392940883, Final residual = 1.1117666586993e-17, No Iterations 1
Phase-1 volume fraction = 0.012968910267778  Min(alpha.water) = 0  Max(alpha.water) = 0.99999999979801
MULES: Correcting alpha.water
MULES: Correcting alpha.water
Phase-1 volume fraction = 0.012968910267778  Min(alpha.water) = -1.5349548579327e-12  Max(alpha.water) = 0.99999999979615
ExecutionTime = 0.06 s  ClockTime = 0 s

Courant Number mean: 0.070293408581102 max: 0.070293408581106
Interface Courant Number mean: 0.00062092510913305 max: 0.070293408581105
deltaT = 0.0027691342774375
Time = 0.0113877

smoothSolver:  Solving for alpha.water, Initial residual = 0.0045736683434708, Final residual = 1.3956553934251e-17, No Iterations 1
Phase-1 volume fraction = 0.012968910267778  Min(alpha.water) = 0  Max(alpha.water) = 0.99999999941093
MULES: Correcting alpha.water
MULES: Correcting alpha.water
Phase-1 volume fraction = 0.012968910267778  Min(alpha.water) = -4.4371786083119e-12  Max(alpha.water) = 0.99999999940435
ExecutionTime = 0.06 s  ClockTime = 0 s

Courant Number mean: 0.083074028323121 max: 0.083074028323125
Interface Courant Number mean: 0.00073382058352088 max: 0.083074028323124
deltaT = 0.0032819369214074
Time = 0.0146696

smoothSolver:  Solving for alpha.water, Initial residual = 0.0054063888613495, Final residual = 1.7931312474473e-17, No Iterations 1
Phase-1 volume fraction = 0.012968910267778  Min(alpha.water) = 0  Max(alpha.water) = 0.99999999827026
MULES: Correcting alpha.water
MULES: Correcting alpha.water
Phase-1 volume fraction = 0.012968910267778  Min(alpha.water) = -1.2228580133284e-11  Max(alpha.water) = 0.99999999824559
ExecutionTime = 0.07 s  ClockTime = 0 s

Courant Number mean: 0.098458107642217 max: 0.098458107642223
Interface Courant Number mean: 0.00090253265338696 max: 0.098458107642221
deltaT = 0.0038786527252996
Time = 0.0185483

smoothSolver:  Solving for alpha.water, Initial residual = 0.00637125488718, Final residual = 1.9934680136783e-17, No Iterations 1
Phase-1 volume fraction = 0.012968910267778  Min(alpha.water) = 0  Max(alpha.water) = 0.99999999490284
MULES: Correcting alpha.water
MULES: Correcting alpha.water
Phase-1 volume fraction = 0.012968910267778  Min(alpha.water) = -3.1042177074083e-11  Max(alpha.water) = 0.99999999480429
ExecutionTime = 0.07 s  ClockTime = 0 s

Courant Number mean: 0.11635958175898 max: 0.11635958175899
Interface Courant Number mean: 0.0011248092903368 max: 0.11635958175899
deltaT = 0.0045250948461829
Time = 0.0230734

smoothSolver:  Solving for alpha.water, Initial residual = 0.00740973949814, Final residual = 1.6427790617128e-17, No Iterations 1
Phase-1 volume fraction = 0.012968910267778  Min(alpha.water) = 0  Max(alpha.water) = 0.99999998541744
MULES: Correcting alpha.water
MULES: Correcting alpha.water
Phase-1 volume fraction = 0.012968910267778  Min(alpha.water) = -6.8293383910217e-11  Max(alpha.water) = 0.99999998502556
ExecutionTime = 0.08 s  ClockTime = 0 s

Courant Number mean: 0.13575284538548 max: 0.13575284538549
Interface Courant Number mean: 0.0014480303507784 max: 0.13575284538549
deltaT = 0.0051284408256739
Time = 0.0282018

smoothSolver:  Solving for alpha.water, Initial residual = 0.0083708687731654, Final residual = 1.1133225078742e-17, No Iterations 1
Phase-1 volume fraction = 0.012968910267778  Min(alpha.water) = 0  Max(alpha.water) = 0.99999996200176
MULES: Correcting alpha.water
MULES: Correcting alpha.water
Phase-1 volume fraction = 0.012968910267778  Min(alpha.water) = -1.2008074143702e-10  Max(alpha.water) = 0.99999996067669
ExecutionTime = 0.09 s  ClockTime = 0 s

Courant Number mean: 0.15385322477021 max: 0.15385322477022
Interface Courant Number mean: 0.0016411010642155 max: 0.15385322477022
deltaT = 0.0059831809632863
Time = 0.034185

smoothSolver:  Solving for alpha.water, Initial residual = 0.0097239777654141, Final residual = 1.5512382062808e-17, No Iterations 1
Phase-1 volume fraction = 0.012968910267778  Min(alpha.water) = 0  Max(alpha.water) = 0.99999989307417
MULES: Correcting alpha.water
MULES: Correcting alpha.water
Phase-1 volume fraction = 0.012968910267778  Min(alpha.water) = -2.3270005389586e-10  Max(alpha.water) = 0.99999988840055
ExecutionTime = 0.09 s  ClockTime = 0 s

Courant Number mean: 0.17949542889858 max: 0.17949542889859
Interface Courant Number mean: 0.0020342815275172 max: 0.17949542889859
deltaT = 0.0065814990596149
Time = 0.0407665

smoothSolver:  Solving for alpha.water, Initial residual = 0.010644452234978, Final residual = 1.566834705183e-17, No Iterations 1
Phase-1 volume fraction = 0.012968910267778  Min(alpha.water) = 0  Max(alpha.water) = 0.99999974072487
MULES: Correcting alpha.water
MULES: Correcting alpha.water
Phase-1 volume fraction = 0.012968910267778  Min(alpha.water) = -3.098277235949e-10  Max(alpha.water) = 0.99999972766426
ExecutionTime = 0.1 s  ClockTime = 0 s

Courant Number mean: 0.19744497178844 max: 0.19744497178845
Interface Courant Number mean: 0.002303524670865 max: 0.19744497178845
deltaT = 0.0074041864420667
Time = 0.0481707

smoothSolver:  Solving for alpha.water, Initial residual = 0.011952318074466, Final residual = 1.8473531351805e-17, No Iterations 1
Phase-1 volume fraction = 0.012968910267778  Min(alpha.water) = 0  Max(alpha.water) = 0.99999936532934
MULES: Correcting alpha.water
MULES: Correcting alpha.water
Phase-1 volume fraction = 0.012968910267778  Min(alpha.water) = -4.4044765827997e-10  Max(alpha.water) = 0.99999932886275
ExecutionTime = 0.1 s  ClockTime = 0 s

Courant Number mean: 0.22212559326199 max: 0.22212559326201
Interface Courant Number mean: 0.0027025280513542 max: 0.222125593262
deltaT = 0.0086382175157445
Time = 0.0568089

smoothSolver:  Solving for alpha.water, Initial residual = 0.013890362253955, Final residual = 2.0017880983214e-17, No Iterations 1
Phase-1 volume fraction = 0.012968910267778  Min(alpha.water) = 0  Max(alpha.water) = 0.99999823863959
MULES: Correcting alpha.water
MULES: Correcting alpha.water
Phase-1 volume fraction = 0.012968910267778  Min(alpha.water) = -7.0007148148144e-10  Max(alpha.water) = 0.99999821010396
ExecutionTime = 0.11 s  ClockTime = 0 s

Courant Number mean: 0.25914652547233 max: 0.25914652547234
Interface Courant Number mean: 0.0033257137435614 max: 0.25914652547234
deltaT = 0.0086382175157445
Time = 0.0654471

smoothSolver:  Solving for alpha.water, Initial residual = 0.013868028881041, Final residual = 1.948414781392e-17, No Iterations 1
Phase-1 volume fraction = 0.012968910267778  Min(alpha.water) = 0  Max(alpha.water) = 0.99999659581906
MULES: Correcting alpha.water
MULES: Correcting alpha.water
Phase-1 volume fraction = 0.012968910267778  Min(alpha.water) = -2.2129605674191e-09  Max(alpha.water) = 0.99999659581906
ExecutionTime = 0.11 s  ClockTime = 0 s

Courant Number mean: 0.25914652547233 max: 0.25914652547234
Interface Courant Number mean: 0.0034552870062976 max: 0.25914652547234
deltaT = 0.0086382175157445
Time = 0.0740853

smoothSolver:  Solving for alpha.water, Initial residual = 0.013835689898259, Final residual = 1.9368438917549e-17, No Iterations 1
Phase-1 volume fraction = 0.012968910267778  Min(alpha.water) = 0  Max(alpha.water) = 0.99999433324244
MULES: Correcting alpha.water
MULES: Correcting alpha.water
Phase-1 volume fraction = 0.012968910267778  Min(alpha.water) = -7.9767754720504e-10  Max(alpha.water) = 0.99999433324244
ExecutionTime = 0.12 s  ClockTime = 0 s

Courant Number mean: 0.25914652547233 max: 0.25914652547234
Interface Courant Number mean: 0.0034984780938763 max: 0.25914652547234
deltaT = 0.0086382175157445
Time = 0.0827236

smoothSolver:  Solving for alpha.water, Initial residual = 0.013880983375846, Final residual = 2.0344072379186e-17, No Iterations 1
Phase-1 volume fraction = 0.012968910267778  Min(alpha.water) = 0  Max(alpha.water) = 0.99999143389445
MULES: Correcting alpha.water
MULES: Correcting alpha.water
Phase-1 volume fraction = 0.012968910267778  Min(alpha.water) = -8.2687881549893e-10  Max(alpha.water) = 0.99999143389445
ExecutionTime = 0.12 s  ClockTime = 0 s

Courant Number mean: 0.25914652547233 max: 0.25914652547234
Interface Courant Number mean: 0.0034120959187188 max: 0.25914652547234
deltaT = 0.0086382175157445
Time = 0.0913618

smoothSolver:  Solving for alpha.water, Initial residual = 0.013911314463175, Final residual = 2.2741541544626e-17, No Iterations 1
Phase-1 volume fraction = 0.012968910267778  Min(alpha.water) = 0  Max(alpha.water) = 0.99998766056406
MULES: Correcting alpha.water
MULES: Correcting alpha.water
Phase-1 volume fraction = 0.012968910267778  Min(alpha.water) = -8.5544459084366e-10  Max(alpha.water) = 0.99998766056406
ExecutionTime = 0.13 s  ClockTime = 0 s

Courant Number mean: 0.25914652547233 max: 0.25914652547234
Interface Courant Number mean: 0.003541669181455 max: 0.25914652547234
deltaT = 0.0086382175157445
Time = 0.1

smoothSolver:  Solving for alpha.water, Initial residual = 0.013932478677597, Final residual = 2.0198979369864e-17, No Iterations 1
Phase-1 volume fraction = 0.012968910267778  Min(alpha.water) = 0  Max(alpha.water) = 0.99998271410939
MULES: Correcting alpha.water
MULES: Correcting alpha.water
Phase-1 volume fraction = 0.012968910267778  Min(alpha.water) = -8.852919518758e-10  Max(alpha.water) = 0.99998271410939
ExecutionTime = 0.15 s  ClockTime = 0 s

Courant Number mean: 0.25914652547233 max: 0.25914652547234
Interface Courant Number mean: 0.0036712424441912 max: 0.25914652547234
deltaT = 0.01
Time = 0.11

smoothSolver:  Solving for alpha.water, Initial residual = 0.016152277646294, Final residual = 1.9085737876737e-17, No Iterations 1
Phase-1 volume fraction = 0.012968910267778  Min(alpha.water) = 0  Max(alpha.water) = 0.99997024845523
MULES: Correcting alpha.water
MULES: Correcting alpha.water
Phase-1 volume fraction = 0.012968910267778  Min(alpha.water) = -2.7726356627005e-09  Max(alpha.water) = 0.99997024845523
ExecutionTime = 0.15 s  ClockTime = 0 s

Courant Number mean: 0.29999999999999 max: 0.30000000000001
Interface Courant Number mean: 0.0043499999999997 max: 0.3
deltaT = 0.01125
Time = 0.12125

smoothSolver:  Solving for alpha.water, Initial residual = 0.018126998568724, Final residual = 1.6093033908451e-17, No Iterations 1
Phase-1 volume fraction = 0.012968910267778  Min(alpha.water) = 0  Max(alpha.water) = 0.99994027632879
MULES: Correcting alpha.water
MULES: Correcting alpha.water
Phase-1 volume fraction = 0.012968910267778  Min(alpha.water) = -6.2380033159424e-09  Max(alpha.water) = 0.99994027632879
ExecutionTime = 0.16 s  ClockTime = 0 s

Courant Number mean: 0.33749999999999 max: 0.33750000000001
Interface Courant Number mean: 0.0048937499999996 max: 0.3375
deltaT = 0.01125
Time = 0.1325

smoothSolver:  Solving for alpha.water, Initial residual = 0.018115066873954, Final residual = 1.4437966370085e-17, No Iterations 1
Phase-1 volume fraction = 0.012968910267778  Min(alpha.water) = 0  Max(alpha.water) = 0.99989767870874
MULES: Correcting alpha.water
MULES: Correcting alpha.water
Phase-1 volume fraction = 0.012968910267778  Min(alpha.water) = -6.1163780104052e-09  Max(alpha.water) = 0.99989767870874
ExecutionTime = 0.16 s  ClockTime = 0 s

Courant Number mean: 0.33749999999999 max: 0.33750000000001
Interface Courant Number mean: 0.0051749999999996 max: 0.3375
deltaT = 0.01125
Time = 0.14375

smoothSolver:  Solving for alpha.water, Initial residual = 0.01809988077313, Final residual = 1.5242715351625e-17, No Iterations 1
Phase-1 volume fraction = 0.012968910267778  Min(alpha.water) = 0  Max(alpha.water) = 0.99986612303894
MULES: Correcting alpha.water
MULES: Correcting alpha.water
Phase-1 volume fraction = 0.012968910267778  Min(alpha.water) = -4.6639671580291e-09  Max(alpha.water) = 0.99986588650252
ExecutionTime = 0.17 s  ClockTime = 0 s

Courant Number mean: 0.33749999999999 max: 0.33750000000001
Interface Courant Number mean: 0.0052312499999996 max: 0.3375
deltaT = 0.01125
Time = 0.155

smoothSolver:  Solving for alpha.water, Initial residual = 0.01804266872409, Final residual = 1.5139044852427e-17, No Iterations 1
Phase-1 volume fraction = 0.012968910267778  Min(alpha.water) = 0  Max(alpha.water) = 0.99982644624147
MULES: Correcting alpha.water
MULES: Correcting alpha.water
Phase-1 volume fraction = 0.012968910267778  Min(alpha.water) = -9.8830591066284e-10  Max(alpha.water) = 0.99982609336614
ExecutionTime = 0.17 s  ClockTime = 0 s

Courant Number mean: 0.33749999999999 max: 0.33750000000001
Interface Courant Number mean: 0.0052312499999996 max: 0.3375
deltaT = 0.01125
Time = 0.16625

smoothSolver:  Solving for alpha.water, Initial residual = 0.017898920024823, Final residual = 1.5259310646319e-17, No Iterations 1
Phase-1 volume fraction = 0.012968910267778  Min(alpha.water) = 0  Max(alpha.water) = 0.99979920283726
MULES: Correcting alpha.water
MULES: Correcting alpha.water
Phase-1 volume fraction = 0.012968910267778  Min(alpha.water) = -9.8806177116557e-10  Max(alpha.water) = 0.99979920283726
ExecutionTime = 0.18 s  ClockTime = 0 s

Courant Number mean: 0.33749999999999 max: 0.33750000000001
Interface Courant Number mean: 0.0051749999999996 max: 0.3375
deltaT = 0.01125
Time = 0.1775

smoothSolver:  Solving for alpha.water, Initial residual = 0.017944704982847, Final residual = 1.6044299805839e-17, No Iterations 1
Phase-1 volume fraction = 0.012968910267778  Min(alpha.water) = 0  Max(alpha.water) = 0.99975932140795
MULES: Correcting alpha.water
MULES: Correcting alpha.water
Phase-1 volume fraction = 0.012968910267778  Min(alpha.water) = -9.9747902806497e-10  Max(alpha.water) = 0.99975932140795
ExecutionTime = 0.18 s  ClockTime = 0 s

Courant Number mean: 0.33749999999999 max: 0.33750000000001
Interface Courant Number mean: 0.0050624999999996 max: 0.3375
deltaT = 0.01125
Time = 0.18875

smoothSolver:  Solving for alpha.water, Initial residual = 0.017961624459068, Final residual = 1.6137114743906e-17, No Iterations 1
Phase-1 volume fraction = 0.012968910267778  Min(alpha.water) = 0  Max(alpha.water) = 0.99970755770815
MULES: Correcting alpha.water
MULES: Correcting alpha.water
Phase-1 volume fraction = 0.012968910267778  Min(alpha.water) = -1.0182707853383e-09  Max(alpha.water) = 0.99970835424072
ExecutionTime = 0.19 s  ClockTime = 0 s

Courant Number mean: 0.33749999999999 max: 0.33750000000001
Interface Courant Number mean: 0.0052874999999996 max: 0.3375
deltaT = 0.01125
Time = 0.2

smoothSolver:  Solving for alpha.water, Initial residual = 0.018060754873898, Final residual = 1.6740821939761e-17, No Iterations 1
Phase-1 volume fraction = 0.012968910267778  Min(alpha.water) = 0  Max(alpha.water) = 0.99963611013467
MULES: Correcting alpha.water
MULES: Correcting alpha.water
Phase-1 volume fraction = 0.012968910267778  Min(alpha.water) = -1.7258399012397e-10  Max(alpha.water) = 0.99963629754779
ExecutionTime = 0.2 s  ClockTime = 0 s

Courant Number mean: 0.33749999999999 max: 0.33750000000001
Interface Courant Number mean: 0.0053437499999996 max: 0.3375
deltaT = 0.0125
Time = 0.2125

smoothSolver:  Solving for alpha.water, Initial residual = 0.020143623795245, Final residual = 1.5490392066974e-17, No Iterations 1
Phase-1 volume fraction = 0.012968910267778  Min(alpha.water) = 0  Max(alpha.water) = 0.99959574868573
MULES: Correcting alpha.water
MULES: Correcting alpha.water
Phase-1 volume fraction = 0.012968910267778  Min(alpha.water) = -3.6199924825527e-10  Max(alpha.water) = 0.99959574868573
ExecutionTime = 0.21 s  ClockTime = 0 s

Courant Number mean: 0.37499999999999 max: 0.37500000000001
Interface Courant Number mean: 0.0057499999999996 max: 0.375
deltaT = 0.0125
Time = 0.225

smoothSolver:  Solving for alpha.water, Initial residual = 0.020191377495614, Final residual = 1.8209688514694e-17, No Iterations 1
Phase-1 volume fraction = 0.012968910267778  Min(alpha.water) = 0  Max(alpha.water) = 0.999521954422
MULES: Correcting alpha.water
MULES: Correcting alpha.water
Phase-1 volume fraction = 0.012968910267778  Min(alpha.water) = -3.69264591973e-10  Max(alpha.water) = 0.99952200645828
ExecutionTime = 0.21 s  ClockTime = 0 s

Courant Number mean: 0.37499999999999 max: 0.37500000000001
Interface Courant Number mean: 0.0060624999999996 max: 0.375
deltaT = 0.0125
Time = 0.2375

smoothSolver:  Solving for alpha.water, Initial residual = 0.020263181763219, Final residual = 1.4617433430769e-17, No Iterations 1
Phase-1 volume fraction = 0.012968910267778  Min(alpha.water) = 0  Max(alpha.water) = 0.99944453194661
MULES: Correcting alpha.water
MULES: Correcting alpha.water
Phase-1 volume fraction = 0.012968910267778  Min(alpha.water) = -3.7737241992863e-10  Max(alpha.water) = 0.99944453194661
ExecutionTime = 0.22 s  ClockTime = 0 s

Courant Number mean: 0.37499999999999 max: 0.37500000000001
Interface Courant Number mean: 0.0056874999999996 max: 0.375
deltaT = 0.0125
Time = 0.25

smoothSolver:  Solving for alpha.water, Initial residual = 0.020208397852722, Final residual = 1.8492504320245e-17, No Iterations 1
Phase-1 volume fraction = 0.012968910267778  Min(alpha.water) = 0  Max(alpha.water) = 0.99938430490554
MULES: Correcting alpha.water
MULES: Correcting alpha.water
Phase-1 volume fraction = 0.012968910267778  Min(alpha.water) = -3.1697869307328e-10  Max(alpha.water) = 0.99938430188459
ExecutionTime = 0.22 s  ClockTime = 0 s

Courant Number mean: 0.37499999999999 max: 0.37500000000001
Interface Courant Number mean: 0.0063124999999995 max: 0.375
deltaT = 0.0125
Time = 0.2625

smoothSolver:  Solving for alpha.water, Initial residual = 0.020063986385093, Final residual = 1.8524994125469e-17, No Iterations 1
Phase-1 volume fraction = 0.012968910267778  Min(alpha.water) = 0  Max(alpha.water) = 0.99930751047818
MULES: Correcting alpha.water
MULES: Correcting alpha.water
Phase-1 volume fraction = 0.012968910267778  Min(alpha.water) = -6.8614219577683e-11  Max(alpha.water) = 0.99930751047818
ExecutionTime = 0.23 s  ClockTime = 0 s

Courant Number mean: 0.37499999999999 max: 0.37500000000001
Interface Courant Number mean: 0.0059999999999996 max: 0.375
deltaT = 0.0125
Time = 0.275

smoothSolver:  Solving for alpha.water, Initial residual = 0.019996877803823, Final residual = 1.6709679665257e-17, No Iterations 1
Phase-1 volume fraction = 0.012968910267778  Min(alpha.water) = 0  Max(alpha.water) = 0.99925779189746
MULES: Correcting alpha.water
MULES: Correcting alpha.water
Phase-1 volume fraction = 0.012968910267778  Min(alpha.water) = -7.0182609701196e-11  Max(alpha.water) = 0.99925778929947
ExecutionTime = 0.23 s  ClockTime = 0 s

Courant Number mean: 0.37499999999999 max: 0.37500000000001
Interface Courant Number mean: 0.0055624999999996 max: 0.375
deltaT = 0.0125
Time = 0.2875

smoothSolver:  Solving for alpha.water, Initial residual = 0.019871538819903, Final residual = 1.6855863511219e-17, No Iterations 1
Phase-1 volume fraction = 0.012968910267778  Min(alpha.water) = 0  Max(alpha.water) = 0.99918492267091
MULES: Correcting alpha.water
MULES: Correcting alpha.water
Phase-1 volume fraction = 0.012968910267778  Min(alpha.water) = -7.1756244436737e-11  Max(alpha.water) = 0.99918551681871
ExecutionTime = 0.24 s  ClockTime = 0 s

Courant Number mean: 0.37499999999999 max: 0.37500000000001
Interface Courant Number mean: 0.0059999999999996 max: 0.375
deltaT = 0.0125
Time = 0.3

smoothSolver:  Solving for alpha.water, Initial residual = 0.019928788634738, Final residual = 1.819594876091e-17, No Iterations 1
Phase-1 volume fraction = 0.012968910267778  Min(alpha.water) = 0  Max(alpha.water) = 0.99910053805409
MULES: Correcting alpha.water
MULES: Correcting alpha.water
Phase-1 volume fraction = 0.012968910267778  Min(alpha.water) = -7.2859397257542e-11  Max(alpha.water) = 0.99910053805409
ExecutionTime = 0.26 s  ClockTime = 0 s

Courant Number mean: 0.37499999999998 max: 0.37500000000001
Interface Courant Number mean: 0.0062499999999995 max: 0.375
deltaT = 0.0125
Time = 0.3125

smoothSolver:  Solving for alpha.water, Initial residual = 0.02011460546893, Final residual = 1.7876125828401e-17, No Iterations 1
Phase-1 volume fraction = 0.012968910267778  Min(alpha.water) = 0  Max(alpha.water) = 0.99905784605092
MULES: Correcting alpha.water
MULES: Correcting alpha.water
Phase-1 volume fraction = 0.012968910267778  Min(alpha.water) = -1.1660259738945e-11  Max(alpha.water) = 0.99905784605092
ExecutionTime = 0.27 s  ClockTime = 0 s

Courant Number mean: 0.37499999999999 max: 0.37500000000001
Interface Courant Number mean: 0.0058749999999996 max: 0.375
deltaT = 0.0125
Time = 0.325

smoothSolver:  Solving for alpha.water, Initial residual = 0.020220565646011, Final residual = 1.8062751156659e-17, No Iterations 1
Phase-1 volume fraction = 0.012968910267778  Min(alpha.water) = 0  Max(alpha.water) = 0.99898551139316
MULES: Correcting alpha.water
MULES: Correcting alpha.water
Phase-1 volume fraction = 0.012968910267778  Min(alpha.water) = -1.1727144859922e-11  Max(alpha.water) = 0.99898592374468
ExecutionTime = 0.28 s  ClockTime = 0 s

Courant Number mean: 0.37499999999999 max: 0.37500000000001
Interface Courant Number mean: 0.0058749999999996 max: 0.375
deltaT = 0.0125
Time = 0.3375

smoothSolver:  Solving for alpha.water, Initial residual = 0.020320333856836, Final residual = 1.8567853222709e-17, No Iterations 1
Phase-1 volume fraction = 0.012968910267778  Min(alpha.water) = 0  Max(alpha.water) = 0.99891060495485
MULES: Correcting alpha.water
MULES: Correcting alpha.water
Phase-1 volume fraction = 0.012968910267778  Min(alpha.water) = -1.1788717363227e-11  Max(alpha.water) = 0.99891060495485
ExecutionTime = 0.28 s  ClockTime = 0 s

Courant Number mean: 0.37499999999999 max: 0.37500000000001
Interface Courant Number mean: 0.0058749999999996 max: 0.375
deltaT = 0.0125
Time = 0.35

smoothSolver:  Solving for alpha.water, Initial residual = 0.02026017792835, Final residual = 1.8718599610095e-17, No Iterations 1
Phase-1 volume fraction = 0.012968910267778  Min(alpha.water) = 0  Max(alpha.water) = 0.99885541114959
MULES: Correcting alpha.water
MULES: Correcting alpha.water
Phase-1 volume fraction = 0.012968910267778  Min(alpha.water) = -1.1825186629337e-11  Max(alpha.water) = 0.99885541114959
ExecutionTime = 0.29 s  ClockTime = 0 s

Courant Number mean: 0.37499999999999 max: 0.37500000000001
Interface Courant Number mean: 0.0062499999999995 max: 0.375
deltaT = 0.0125
Time = 0.3625

smoothSolver:  Solving for alpha.water, Initial residual = 0.020156493585881, Final residual = 1.7719097306028e-17, No Iterations 1
Phase-1 volume fraction = 0.012968910267778  Min(alpha.water) = 0  Max(alpha.water) = 0.99881202230022
MULES: Correcting alpha.water
MULES: Correcting alpha.water
Phase-1 volume fraction = 0.012968910267778  Min(alpha.water) = -9.3008275829425e-13  Max(alpha.water) = 0.99881202230022
ExecutionTime = 0.29 s  ClockTime = 0 s

Courant Number mean: 0.37499999999999 max: 0.37500000000001
Interface Courant Number mean: 0.0059374999999996 max: 0.375
deltaT = 0.0125
Time = 0.375

smoothSolver:  Solving for alpha.water, Initial residual = 0.020080013131366, Final residual = 1.5576388558498e-17, No Iterations 1
Phase-1 volume fraction = 0.012968910267778  Min(alpha.water) = 0  Max(alpha.water) = 0.99875457724053
MULES: Correcting alpha.water
MULES: Correcting alpha.water
Phase-1 volume fraction = 0.012968910267778  Min(alpha.water) = -9.3245846668535e-13  Max(alpha.water) = 0.99875573114394
ExecutionTime = 0.3 s  ClockTime = 0 s

Courant Number mean: 0.37499999999999 max: 0.37500000000001
Interface Courant Number mean: 0.0056874999999996 max: 0.375
deltaT = 0.0125
Time = 0.3875

smoothSolver:  Solving for alpha.water, Initial residual = 0.019955427499821, Final residual = 1.7182675517878e-17, No Iterations 1
Phase-1 volume fraction = 0.012968910267778  Min(alpha.water) = 0  Max(alpha.water) = 0.99868914021482
MULES: Correcting alpha.water
MULES: Correcting alpha.water
Phase-1 volume fraction = 0.012968910267778  Min(alpha.water) = -9.3585368613762e-13  Max(alpha.water) = 0.9986923721704
ExecutionTime = 0.3 s  ClockTime = 0 s

Courant Number mean: 0.37499999999999 max: 0.37500000000001
Interface Courant Number mean: 0.0060624999999996 max: 0.375
deltaT = 0.0125
Time = 0.4

smoothSolver:  Solving for alpha.water, Initial residual = 0.01998854003079, Final residual = 1.7372462231423e-17, No Iterations 1
Phase-1 volume fraction = 0.012968910267778  Min(alpha.water) = 0  Max(alpha.water) = 0.9986614417313
MULES: Correcting alpha.water
MULES: Correcting alpha.water
Phase-1 volume fraction = 0.012968910267778  Min(alpha.water) = -9.4270354857716e-13  Max(alpha.water) = 0.9986614417313
ExecutionTime = 0.32 s  ClockTime = 0 s

Courant Number mean: 0.37499999999998 max: 0.37500000000001
Interface Courant Number mean: 0.0063749999999995 max: 0.375
deltaT = 0.0125
Time = 0.4125

smoothSolver:  Solving for alpha.water, Initial residual = 0.020133450160233, Final residual = 1.8046706898824e-17, No Iterations 1
Phase-1 volume fraction = 0.012968910267778  Min(alpha.water) = 0  Max(alpha.water) = 0.99861358888454
MULES: Correcting alpha.water
MULES: Correcting alpha.water
Phase-1 volume fraction = 0.012968910267778  Min(alpha.water) = -9.5094573386056e-13  Max(alpha.water) = 0.99861100149141
ExecutionTime = 0.32 s  ClockTime = 0 s

Courant Number mean: 0.37499999999999 max: 0.37500000000001
Interface Courant Number mean: 0.0060624999999996 max: 0.375
deltaT = 0.0125
Time = 0.425

smoothSolver:  Solving for alpha.water, Initial residual = 0.020161525138782, Final residual = 1.8713973492704e-17, No Iterations 1
Phase-1 volume fraction = 0.012968910267778  Min(alpha.water) = 0  Max(alpha.water) = 0.99854598379023
MULES: Correcting alpha.water
MULES: Correcting alpha.water
Phase-1 volume fraction = 0.012968910267778  Min(alpha.water) = -4.5735965839846e-17  Max(alpha.water) = 0.99854683183358
ExecutionTime = 0.33 s  ClockTime = 0 s

Courant Number mean: 0.37499999999999 max: 0.37500000000001
Interface Courant Number mean: 0.0059374999999996 max: 0.375
deltaT = 0.0125
Time = 0.4375

smoothSolver:  Solving for alpha.water, Initial residual = 0.020269084844104, Final residual = 1.5724280275095e-17, No Iterations 1
Phase-1 volume fraction = 0.012968910267778  Min(alpha.water) = 0  Max(alpha.water) = 0.99849946554561
MULES: Correcting alpha.water
MULES: Correcting alpha.water
Phase-1 volume fraction = 0.012968910267778  Min(alpha.water) = -3.0318062055493e-17  Max(alpha.water) = 0.99849946554561
ExecutionTime = 0.33 s  ClockTime = 0 s

Courant Number mean: 0.37499999999999 max: 0.37500000000001
Interface Courant Number mean: 0.0059999999999996 max: 0.375
deltaT = 0.0125
Time = 0.45

smoothSolver:  Solving for alpha.water, Initial residual = 0.020219263738419, Final residual = 1.6899351217728e-17, No Iterations 1
Phase-1 volume fraction = 0.012968910267778  Min(alpha.water) = 0  Max(alpha.water) = 0.99844537801417
MULES: Correcting alpha.water
MULES: Correcting alpha.water
Phase-1 volume fraction = 0.012968910267778  Min(alpha.water) = -2.0513167505671e-17  Max(alpha.water) = 0.9984434994618
ExecutionTime = 0.34 s  ClockTime = 0 s

Courant Number mean: 0.37499999999999 max: 0.37500000000001
Interface Courant Number mean: 0.0061874999999995 max: 0.375
deltaT = 0.0125
Time = 0.4625

smoothSolver:  Solving for alpha.water, Initial residual = 0.020173844617912, Final residual = 1.8557948852252e-17, No Iterations 1
Phase-1 volume fraction = 0.012968910267778  Min(alpha.water) = 0  Max(alpha.water) = 0.99840681314494
MULES: Correcting alpha.water
MULES: Correcting alpha.water
Phase-1 volume fraction = 0.012968910267778  Min(alpha.water) = -1.4226017977476e-17  Max(alpha.water) = 0.99840681314494
ExecutionTime = 0.35 s  ClockTime = 0 s

Courant Number mean: 0.37499999999999 max: 0.37500000000001
Interface Courant Number mean: 0.0059374999999996 max: 0.375
deltaT = 0.0125
Time = 0.475

smoothSolver:  Solving for alpha.water, Initial residual = 0.020128900272756, Final residual = 1.7812237158613e-17, No Iterations 1
Phase-1 volume fraction = 0.012968910267778  Min(alpha.water) = 0  Max(alpha.water) = 0.99835261531994
MULES: Correcting alpha.water
MULES: Correcting alpha.water
Phase-1 volume fraction = 0.012968910267778  Min(alpha.water) = -1.0140852134339e-17  Max(alpha.water) = 0.99835456960334
ExecutionTime = 0.35 s  ClockTime = 0 s

Courant Number mean: 0.37499999999999 max: 0.37500000000001
Interface Courant Number mean: 0.0058749999999996 max: 0.375
deltaT = 0.0125
Time = 0.4875

smoothSolver:  Solving for alpha.water, Initial residual = 0.020106304806946, Final residual = 1.8416726332115e-17, No Iterations 1
Phase-1 volume fraction = 0.012968910267778  Min(alpha.water) = 0  Max(alpha.water) = 0.99829286813558
MULES: Correcting alpha.water
MULES: Correcting alpha.water
Phase-1 volume fraction = 0.012968910267778  Min(alpha.water) = -7.4293278048181e-18  Max(alpha.water) = 0.99829533467903
ExecutionTime = 0.36 s  ClockTime = 0 s

Courant Number mean: 0.37499999999999 max: 0.37500000000001
Interface Courant Number mean: 0.0062499999999995 max: 0.375
deltaT = 0.0125
Time = 0.5

smoothSolver:  Solving for alpha.water, Initial residual = 0.020114428230978, Final residual = 1.7190238394297e-17, No Iterations 1
Phase-1 volume fraction = 0.012968910267778  Min(alpha.water) = 0  Max(alpha.water) = 0.99826549818019
MULES: Correcting alpha.water
MULES: Correcting alpha.water
Phase-1 volume fraction = 0.012968910267778  Min(alpha.water) = -5.067862540715e-19  Max(alpha.water) = 0.99826549818019
ExecutionTime = 0.38 s  ClockTime = 0 s

Courant Number mean: 0.37499999999998 max: 0.37500000000001
Interface Courant Number mean: 0.0060624999999995 max: 0.375
deltaT = 0.0125
Time = 0.5125

smoothSolver:  Solving for alpha.water, Initial residual = 0.020111798185629, Final residual = 1.9537874282871e-17, No Iterations 1
Phase-1 volume fraction = 0.012968910267778  Min(alpha.water) = 0  Max(alpha.water) = 0.99822054835137
MULES: Correcting alpha.water
MULES: Correcting alpha.water
Phase-1 volume fraction = 0.012968910267778  Min(alpha.water) = -3.9048291380129e-19  Max(alpha.water) = 0.99821946875756
ExecutionTime = 0.38 s  ClockTime = 0 s

Courant Number mean: 0.37499999999999 max: 0.37500000000001
Interface Courant Number mean: 0.0061249999999996 max: 0.375
deltaT = 0.0125
Time = 0.525

smoothSolver:  Solving for alpha.water, Initial residual = 0.020157096961104, Final residual = 1.8575263559952e-17, No Iterations 1
Phase-1 volume fraction = 0.012968910267778  Min(alpha.water) = 0  Max(alpha.water) = 0.9981654330052
MULES: Correcting alpha.water
MULES: Correcting alpha.water
Phase-1 volume fraction = 0.012968910267778  Min(alpha.water) = -3.0932229315853e-19  Max(alpha.water) = 0.9981654330052
ExecutionTime = 0.39 s  ClockTime = 0 s

Courant Number mean: 0.37499999999999 max: 0.37500000000001
Interface Courant Number mean: 0.0059999999999996 max: 0.375
deltaT = 0.0125
Time = 0.5375

smoothSolver:  Solving for alpha.water, Initial residual = 0.02018101234238, Final residual = 1.8444064116937e-17, No Iterations 1
Phase-1 volume fraction = 0.012968910267778  Min(alpha.water) = 0  Max(alpha.water) = 0.99811478962005
MULES: Correcting alpha.water
MULES: Correcting alpha.water
Phase-1 volume fraction = 0.012968910267778  Min(alpha.water) = -2.4939089779382e-19  Max(alpha.water) = 0.99811478962005
ExecutionTime = 0.39 s  ClockTime = 0 s

Courant Number mean: 0.37499999999999 max: 0.37500000000001
Interface Courant Number mean: 0.0059374999999996 max: 0.375
deltaT = 0.0125
Time = 0.55

smoothSolver:  Solving for alpha.water, Initial residual = 0.020126750655102, Final residual = 1.7341665955711e-17, No Iterations 1
Phase-1 volume fraction = 0.012968910267778  Min(alpha.water) = 0  Max(alpha.water) = 0.99806030257563
MULES: Correcting alpha.water
MULES: Correcting alpha.water
Phase-1 volume fraction = 0.012968910267778  Min(alpha.water) = -2.0301642882521e-19  Max(alpha.water) = 0.99805884098563
ExecutionTime = 0.4 s  ClockTime = 0 s

Courant Number mean: 0.37499999999999 max: 0.37500000000001
Interface Courant Number mean: 0.0061874999999996 max: 0.375
deltaT = 0.0125
Time = 0.5625

smoothSolver:  Solving for alpha.water, Initial residual = 0.020160621901961, Final residual = 1.8127304841562e-17, No Iterations 1
Phase-1 volume fraction = 0.012968910267778  Min(alpha.water) = 0  Max(alpha.water) = 0.99802669891812
MULES: Correcting alpha.water
MULES: Correcting alpha.water
Phase-1 volume fraction = 0.012968910267778  Min(alpha.water) = -1.6590411750785e-19  Max(alpha.water) = 0.99802669891812
ExecutionTime = 0.4 s  ClockTime = 0 s

Courant Number mean: 0.37499999999999 max: 0.37500000000001
Interface Courant Number mean: 0.0059374999999996 max: 0.375
deltaT = 0.0125
Time = 0.575

smoothSolver:  Solving for alpha.water, Initial residual = 0.020147785875711, Final residual = 1.4788256011933e-17, No Iterations 1
Phase-1 volume fraction = 0.012968910267778  Min(alpha.water) = 0  Max(alpha.water) = 0.99797660949482
MULES: Correcting alpha.water
MULES: Correcting alpha.water
Phase-1 volume fraction = 0.012968910267778  Min(alpha.water) = -1.3557607836442e-19  Max(alpha.water) = 0.99798132708845
ExecutionTime = 0.41 s  ClockTime = 0 s

Courant Number mean: 0.37499999999999 max: 0.37500000000001
Interface Courant Number mean: 0.0060624999999996 max: 0.375
deltaT = 0.0125
Time = 0.5875

smoothSolver:  Solving for alpha.water, Initial residual = 0.020209900384243, Final residual = 1.8612802470026e-17, No Iterations 1
Phase-1 volume fraction = 0.012968910267778  Min(alpha.water) = 0  Max(alpha.water) = 0.99795710209396
MULES: Correcting alpha.water
MULES: Correcting alpha.water
Phase-1 volume fraction = 0.012968910267778  Min(alpha.water) = -1.1051945855857e-19  Max(alpha.water) = 0.99795710209396
ExecutionTime = 0.41 s  ClockTime = 0 s

Courant Number mean: 0.37499999999999 max: 0.37500000000001
Interface Courant Number mean: 0.0062499999999996 max: 0.375
deltaT = 0.0125
Time = 0.6

smoothSolver:  Solving for alpha.water, Initial residual = 0.020278546507502, Final residual = 1.9230259668535e-17, No Iterations 1
Phase-1 volume fraction = 0.012968910267778  Min(alpha.water) = 0  Max(alpha.water) = 0.99792372145092
MULES: Correcting alpha.water
MULES: Correcting alpha.water
Phase-1 volume fraction = 0.012968910267778  Min(alpha.water) = -8.9735131770304e-20  Max(alpha.water) = 0.99792229755132
ExecutionTime = 0.43 s  ClockTime = 0 s

Courant Number mean: 0.37499999999998 max: 0.37500000000001
Interface Courant Number mean: 0.0059374999999996 max: 0.375
deltaT = 0.0125
Time = 0.6125

smoothSolver:  Solving for alpha.water, Initial residual = 0.020161827017223, Final residual = 2.0625306436495e-17, No Iterations 1
Phase-1 volume fraction = 0.012968910267778  Min(alpha.water) = 0  Max(alpha.water) = 0.99788118052466
MULES: Correcting alpha.water
MULES: Correcting alpha.water
Phase-1 volume fraction = 0.012968910267778  Min(alpha.water) = -7.2502543931561e-20  Max(alpha.water) = 0.99789922401151
ExecutionTime = 0.43 s  ClockTime = 0 s

Courant Number mean: 0.37499999999999 max: 0.37500000000001
Interface Courant Number mean: 0.0059999999999996 max: 0.375
deltaT = 0.0125
Time = 0.625

smoothSolver:  Solving for alpha.water, Initial residual = 0.020112118001709, Final residual = 1.7943259054205e-17, No Iterations 1
Phase-1 volume fraction = 0.012968910267778  Min(alpha.water) = 0  Max(alpha.water) = 0.99784517778637
MULES: Correcting alpha.water
MULES: Correcting alpha.water
Phase-1 volume fraction = 0.012968910267778  Min(alpha.water) = -5.3022247053113e-21  Max(alpha.water) = 0.99784517778637
ExecutionTime = 0.44 s  ClockTime = 0 s

Courant Number mean: 0.37499999999999 max: 0.37500000000001
Interface Courant Number mean: 0.0060624999999996 max: 0.375
deltaT = 0.0125
Time = 0.6375

smoothSolver:  Solving for alpha.water, Initial residual = 0.02009384602174, Final residual = 1.6998617595554e-17, No Iterations 1
Phase-1 volume fraction = 0.012968910267778  Min(alpha.water) = 0  Max(alpha.water) = 0.99779212948196
MULES: Correcting alpha.water
MULES: Correcting alpha.water
Phase-1 volume fraction = 0.012968910267778  Min(alpha.water) = -4.2924629867205e-21  Max(alpha.water) = 0.99781369443904
ExecutionTime = 0.44 s  ClockTime = 0 s

Courant Number mean: 0.37499999999999 max: 0.37500000000001
Interface Courant Number mean: 0.0059999999999996 max: 0.375
deltaT = 0.0125
Time = 0.65

smoothSolver:  Solving for alpha.water, Initial residual = 0.020075531093805, Final residual = 1.749551367657e-17, No Iterations 1
Phase-1 volume fraction = 0.012968910267778  Min(alpha.water) = 0  Max(alpha.water) = 0.99777414701114
MULES: Correcting alpha.water
MULES: Correcting alpha.water
Phase-1 volume fraction = 0.012968910267778  Min(alpha.water) = -3.4916457712402e-21  Max(alpha.water) = 0.99777414701114
ExecutionTime = 0.45 s  ClockTime = 0 s

Courant Number mean: 0.37499999999999 max: 0.37500000000001
Interface Courant Number mean: 0.0062499999999996 max: 0.375
deltaT = 0.0125
Time = 0.6625

smoothSolver:  Solving for alpha.water, Initial residual = 0.020105790370539, Final residual = 1.7644560820119e-17, No Iterations 1
Phase-1 volume fraction = 0.012968910267778  Min(alpha.water) = 0  Max(alpha.water) = 0.99773433371471
MULES: Correcting alpha.water
MULES: Correcting alpha.water
Phase-1 volume fraction = 0.012968910267778  Min(alpha.water) = -2.8483591486804e-21  Max(alpha.water) = 0.99773254854705
ExecutionTime = 0.45 s  ClockTime = 0 s

Courant Number mean: 0.37499999999999 max: 0.37500000000001
Interface Courant Number mean: 0.0059999999999996 max: 0.375
deltaT = 0.0125
Time = 0.675

smoothSolver:  Solving for alpha.water, Initial residual = 0.020133502286777, Final residual = 1.6780240660837e-17, No Iterations 1
Phase-1 volume fraction = 0.012968910267778  Min(alpha.water) = 0  Max(alpha.water) = 0.99768848593724
MULES: Correcting alpha.water
MULES: Correcting alpha.water
Phase-1 volume fraction = 0.012968910267778  Min(alpha.water) = -2.3262585859028e-21  Max(alpha.water) = 0.99769505659545
ExecutionTime = 0.46 s  ClockTime = 0 s

Courant Number mean: 0.37499999999999 max: 0.37500000000001
Interface Courant Number mean: 0.0060624999999996 max: 0.375
deltaT = 0.0125
Time = 0.6875

smoothSolver:  Solving for alpha.water, Initial residual = 0.020340196610522, Final residual = 1.6397714543689e-17, No Iterations 1
Phase-1 volume fraction = 0.012968910267778  Min(alpha.water) = 0  Max(alpha.water) = 0.99766983679673
MULES: Correcting alpha.water
MULES: Correcting alpha.water
Phase-1 volume fraction = 0.012968910267778  Min(alpha.water) = -1.8991888739838e-21  Max(alpha.water) = 0.99766983679673
ExecutionTime = 0.46 s  ClockTime = 1 s

Courant Number mean: 0.37499999999999 max: 0.37500000000001
Interface Courant Number mean: 0.0062499999999996 max: 0.375
deltaT = 0.0125
Time = 0.7

smoothSolver:  Solving for alpha.water, Initial residual = 0.020381199857452, Final residual = 1.8164140533144e-17, No Iterations 1
Phase-1 volume fraction = 0.012968910267778  Min(alpha.water) = 0  Max(alpha.water) = 0.99763759992141
MULES: Correcting alpha.water
MULES: Correcting alpha.water
Phase-1 volume fraction = 0.012968910267778  Min(alpha.water) = -1.5480148585022e-21  Max(alpha.water) = 0.99764460232502
ExecutionTime = 0.48 s  ClockTime = 1 s

Courant Number mean: 0.37499999999999 max: 0.37500000000001
Interface Courant Number mean: 0.0058749999999996 max: 0.375
deltaT = 0.0125
Time = 0.7125

smoothSolver:  Solving for alpha.water, Initial residual = 0.020252910849891, Final residual = 1.808440128634e-17, No Iterations 1
Phase-1 volume fraction = 0.012968910267778  Min(alpha.water) = 0  Max(alpha.water) = 0.99759667496292
MULES: Correcting alpha.water
MULES: Correcting alpha.water
Phase-1 volume fraction = 0.012968910267778  Min(alpha.water) = -1.2584334830156e-21  Max(alpha.water) = 0.99763483727608
ExecutionTime = 0.48 s  ClockTime = 1 s

Courant Number mean: 0.37499999999999 max: 0.37500000000001
Interface Courant Number mean: 0.0059374999999996 max: 0.375
deltaT = 0.0125
Time = 0.725

smoothSolver:  Solving for alpha.water, Initial residual = 0.020070630592128, Final residual = 1.7535330010013e-17, No Iterations 1
Phase-1 volume fraction = 0.012968910267778  Min(alpha.water) = 0  Max(alpha.water) = 0.99756176924653
MULES: Correcting alpha.water
MULES: Correcting alpha.water
Phase-1 volume fraction = 0.012968910267778  Min(alpha.water) = -1.0194761000152e-21  Max(alpha.water) = 0.99756176924653
ExecutionTime = 0.49 s  ClockTime = 1 s

Courant Number mean: 0.37499999999999 max: 0.37500000000001
Interface Courant Number mean: 0.0059999999999996 max: 0.375
deltaT = 0.0125
Time = 0.7375

smoothSolver:  Solving for alpha.water, Initial residual = 0.01997427600853, Final residual = 1.6737571963141e-17, No Iterations 1
Phase-1 volume fraction = 0.012968910267778  Min(alpha.water) = 0  Max(alpha.water) = 0.99750394744561
MULES: Correcting alpha.water
MULES: Correcting alpha.water
Phase-1 volume fraction = 0.012968910267778  Min(alpha.water) = -8.2250178886531e-22  Max(alpha.water) = 0.99754731356651
ExecutionTime = 0.5 s  ClockTime = 1 s

Courant Number mean: 0.37499999999999 max: 0.37500000000001
Interface Courant Number mean: 0.0059999999999996 max: 0.375
deltaT = 0.0125
Time = 0.75

smoothSolver:  Solving for alpha.water, Initial residual = 0.02003297500694, Final residual = 1.6219216575503e-17, No Iterations 1
Phase-1 volume fraction = 0.012968910267778  Min(alpha.water) = 0  Max(alpha.water) = 0.99748431276427
MULES: Correcting alpha.water
MULES: Correcting alpha.water
Phase-1 volume fraction = 0.012968910267778  Min(alpha.water) = -6.6056260026491e-22  Max(alpha.water) = 0.99748431276426
ExecutionTime = 0.5 s  ClockTime = 1 s

Courant Number mean: 0.37499999999999 max: 0.37500000000001
Interface Courant Number mean: 0.0061874999999996 max: 0.375
deltaT = 0.0125
Time = 0.7625

smoothSolver:  Solving for alpha.water, Initial residual = 0.020047360483277, Final residual = 1.9282950005457e-17, No Iterations 1
Phase-1 volume fraction = 0.012968910267778  Min(alpha.water) = 0  Max(alpha.water) = 0.99744608886801
MULES: Correcting alpha.water
MULES: Correcting alpha.water
Phase-1 volume fraction = 0.012968910267778  Min(alpha.water) = -4.8051063594206e-23  Max(alpha.water) = 0.99744461808169
ExecutionTime = 0.51 s  ClockTime = 1 s

Courant Number mean: 0.37499999999999 max: 0.37500000000001
Interface Courant Number mean: 0.0059999999999996 max: 0.375
deltaT = 0.0125
Time = 0.775

smoothSolver:  Solving for alpha.water, Initial residual = 0.020143080818229, Final residual = 1.7623607919047e-17, No Iterations 1
Phase-1 volume fraction = 0.012968910267778  Min(alpha.water) = 0  Max(alpha.water) = 0.99740265818591
MULES: Correcting alpha.water
MULES: Correcting alpha.water
Phase-1 volume fraction = 0.012968910267778  Min(alpha.water) = -3.8701344961168e-23  Max(alpha.water) = 0.99742187706147
ExecutionTime = 0.51 s  ClockTime = 1 s

Courant Number mean: 0.37499999999999 max: 0.37500000000001
Interface Courant Number mean: 0.0061249999999996 max: 0.375
deltaT = 0.0125
Time = 0.7875

smoothSolver:  Solving for alpha.water, Initial residual = 0.020419306463293, Final residual = 1.6960920870523e-17, No Iterations 1
Phase-1 volume fraction = 0.012968910267778  Min(alpha.water) = 0  Max(alpha.water) = 0.99738643278403
MULES: Correcting alpha.water
MULES: Correcting alpha.water
Phase-1 volume fraction = 0.012968910267778  Min(alpha.water) = -3.1325752063002e-23  Max(alpha.water) = 0.99739022077504
ExecutionTime = 0.52 s  ClockTime = 1 s

Courant Number mean: 0.37499999999999 max: 0.37500000000001
Interface Courant Number mean: 0.0061874999999996 max: 0.375
deltaT = 0.0125
Time = 0.8

smoothSolver:  Solving for alpha.water, Initial residual = 0.020413744467273, Final residual = 1.7116727641637e-17, No Iterations 1
Phase-1 volume fraction = 0.012968910267778  Min(alpha.water) = 0  Max(alpha.water) = 0.9973545233766
MULES: Correcting alpha.water
MULES: Correcting alpha.water
Phase-1 volume fraction = 0.012968910267778  Min(alpha.water) = -2.5435926999747e-23  Max(alpha.water) = 0.99737837199504
ExecutionTime = 0.53 s  ClockTime = 1 s

Courant Number mean: 0.37499999999998 max: 0.37500000000001
Interface Courant Number mean: 0.0059999999999996 max: 0.375
deltaT = 0.0125
Time = 0.8125

smoothSolver:  Solving for alpha.water, Initial residual = 0.020290375812751, Final residual = 2.0602453821634e-17, No Iterations 1
Phase-1 volume fraction = 0.012968910267778  Min(alpha.water) = 0  Max(alpha.water) = 0.99731488029403
MULES: Correcting alpha.water
MULES: Correcting alpha.water
Phase-1 volume fraction = 0.012968910267778  Min(alpha.water) = -2.0683339737989e-23  Max(alpha.water) = 0.99738385933044
ExecutionTime = 0.54 s  ClockTime = 1 s

Courant Number mean: 0.37499999999999 max: 0.37500000000001
Interface Courant Number mean: 0.0059999999999996 max: 0.375
deltaT = 0.0125
Time = 0.825

smoothSolver:  Solving for alpha.water, Initial residual = 0.020082084678352, Final residual = 1.6496278045884e-17, No Iterations 1
Phase-1 volume fraction = 0.012968910267778  Min(alpha.water) = 0  Max(alpha.water) = 0.9972781297275
MULES: Correcting alpha.water
MULES: Correcting alpha.water
Phase-1 volume fraction = 0.012968910267778  Min(alpha.water) = -1.6817952620919e-23  Max(alpha.water) = 0.99728858355045
ExecutionTime = 0.54 s  ClockTime = 1 s

Courant Number mean: 0.37499999999999 max: 0.37500000000001
Interface Courant Number mean: 0.0059999999999996 max: 0.375
deltaT = 0.0125
Time = 0.8375

smoothSolver:  Solving for alpha.water, Initial residual = 0.019901945546903, Final residual = 2.0862252097654e-17, No Iterations 1
Phase-1 volume fraction = 0.012968910267778  Min(alpha.water) = 0  Max(alpha.water) = 0.99721711885174
MULES: Correcting alpha.water
MULES: Correcting alpha.water
Phase-1 volume fraction = 0.012968910267778  Min(alpha.water) = -1.3657170027666e-23  Max(alpha.water) = 0.99722896049603
ExecutionTime = 0.55 s  ClockTime = 1 s

Courant Number mean: 0.37499999999999 max: 0.37500000000001
Interface Courant Number mean: 0.0059374999999996 max: 0.375
deltaT = 0.0125
Time = 0.85

smoothSolver:  Solving for alpha.water, Initial residual = 0.019935055111764, Final residual = 1.4875447314139e-17, No Iterations 1
Phase-1 volume fraction = 0.012968910267778  Min(alpha.water) = 0  Max(alpha.water) = 0.99720400079262
MULES: Correcting alpha.water
MULES: Correcting alpha.water
Phase-1 volume fraction = 0.012968910267778  Min(alpha.water) = -1.1064550331732e-23  Max(alpha.water) = 0.99720400079262
ExecutionTime = 0.55 s  ClockTime = 1 s

Courant Number mean: 0.37499999999999 max: 0.37500000000001
Interface Courant Number mean: 0.0062499999999996 max: 0.375
deltaT = 0.0125
Time = 0.8625

smoothSolver:  Solving for alpha.water, Initial residual = 0.019958066494981, Final residual = 2.0301270146495e-17, No Iterations 1
Phase-1 volume fraction = 0.012968910267778  Min(alpha.water) = 0  Max(alpha.water) = 0.99716637120328
MULES: Correcting alpha.water
MULES: Correcting alpha.water
Phase-1 volume fraction = 0.012968910267778  Min(alpha.water) = -8.9357282178731e-24  Max(alpha.water) = 0.99717305715513
ExecutionTime = 0.56 s  ClockTime = 1 s

Courant Number mean: 0.37499999999999 max: 0.37500000000001
Interface Courant Number mean: 0.0059999999999996 max: 0.375
deltaT = 0.0125
Time = 0.875

smoothSolver:  Solving for alpha.water, Initial residual = 0.020233617855998, Final residual = 1.4226355983861e-17, No Iterations 1
Phase-1 volume fraction = 0.012968910267778  Min(alpha.water) = 0  Max(alpha.water) = 0.99712538702228
MULES: Correcting alpha.water
MULES: Correcting alpha.water
Phase-1 volume fraction = 0.012968910267778  Min(alpha.water) = -7.1888919862707e-24  Max(alpha.water) = 0.99715286535712
ExecutionTime = 0.56 s  ClockTime = 1 s

Courant Number mean: 0.37499999999999 max: 0.37500000000001
Interface Courant Number mean: 0.0063124999999995 max: 0.375
deltaT = 0.0125
Time = 0.8875

smoothSolver:  Solving for alpha.water, Initial residual = 0.020417958481366, Final residual = 1.6742411372473e-17, No Iterations 1
Phase-1 volume fraction = 0.012968910267778  Min(alpha.water) = 0  Max(alpha.water) = 0.99710785453175
MULES: Correcting alpha.water
MULES: Correcting alpha.water
Phase-1 volume fraction = 0.012968910267778  Min(alpha.water) = -5.7585870157614e-24  Max(alpha.water) = 0.99713097291082
ExecutionTime = 0.57 s  ClockTime = 1 s

Courant Number mean: 0.37499999999999 max: 0.37500000000001
Interface Courant Number mean: 0.0061874999999996 max: 0.375
deltaT = 0.0125
Time = 0.9

smoothSolver:  Solving for alpha.water, Initial residual = 0.020414345963669, Final residual = 1.9954581534307e-17, No Iterations 1
Phase-1 volume fraction = 0.012968910267778  Min(alpha.water) = 0  Max(alpha.water) = 0.99707597113642
MULES: Correcting alpha.water
MULES: Correcting alpha.water
Phase-1 volume fraction = 0.012968910267778  Min(alpha.water) = -4.1741124358356e-25  Max(alpha.water) = 0.99711350461769
ExecutionTime = 0.59 s  ClockTime = 1 s

Courant Number mean: 0.37499999999999 max: 0.37500000000001
Interface Courant Number mean: 0.0059374999999996 max: 0.375
deltaT = 0.0125
Time = 0.9125

smoothSolver:  Solving for alpha.water, Initial residual = 0.020302985497231, Final residual = 1.4343277462037e-17, No Iterations 1
Phase-1 volume fraction = 0.012968910267778  Min(alpha.water) = 0  Max(alpha.water) = 0.99704245271055
MULES: Correcting alpha.water
MULES: Correcting alpha.water
Phase-1 volume fraction = 0.012968910267778  Min(alpha.water) = -3.349487750674e-25  Max(alpha.water) = 0.99709822360986
ExecutionTime = 0.59 s  ClockTime = 1 s

Courant Number mean: 0.37499999999999 max: 0.37500000000001
Interface Courant Number mean: 0.0061249999999996 max: 0.375
deltaT = 0.0125
Time = 0.925

smoothSolver:  Solving for alpha.water, Initial residual = 0.020142787135531, Final residual = 1.7486660720432e-17, No Iterations 1
Phase-1 volume fraction = 0.012968910267778  Min(alpha.water) = 0  Max(alpha.water) = 0.99700660735126
MULES: Correcting alpha.water
MULES: Correcting alpha.water
Phase-1 volume fraction = 0.012968910267778  Min(alpha.water) = -2.7020191186861e-25  Max(alpha.water) = 0.99704131058577
ExecutionTime = 0.6 s  ClockTime = 1 s

Courant Number mean: 0.37499999999999 max: 0.37500000000001
Interface Courant Number mean: 0.0061249999999996 max: 0.375
deltaT = 0.0125
Time = 0.9375

smoothSolver:  Solving for alpha.water, Initial residual = 0.019880034676267, Final residual = 1.6491624644509e-17, No Iterations 1
Phase-1 volume fraction = 0.012968910267778  Min(alpha.water) = 0  Max(alpha.water) = 0.99694595795953
MULES: Correcting alpha.water
MULES: Correcting alpha.water
Phase-1 volume fraction = 0.012968910267778  Min(alpha.water) = -2.1873188102609e-25  Max(alpha.water) = 0.99696646059148
ExecutionTime = 0.6 s  ClockTime = 1 s

Courant Number mean: 0.37499999999999 max: 0.37500000000001
Interface Courant Number mean: 0.0062499999999996 max: 0.375
deltaT = 0.0125
Time = 0.95

smoothSolver:  Solving for alpha.water, Initial residual = 0.019840704511652, Final residual = 1.6340593783161e-17, No Iterations 1
Phase-1 volume fraction = 0.012968910267778  Min(alpha.water) = 0  Max(alpha.water) = 0.99692468356852
MULES: Correcting alpha.water
MULES: Correcting alpha.water
Phase-1 volume fraction = 0.012968910267778  Min(alpha.water) = -1.7738386721637e-25  Max(alpha.water) = 0.99692529960435
ExecutionTime = 0.61 s  ClockTime = 1 s

Courant Number mean: 0.37499999999999 max: 0.37500000000001
Interface Courant Number mean: 0.0063124999999996 max: 0.375
deltaT = 0.0125
Time = 0.9625

smoothSolver:  Solving for alpha.water, Initial residual = 0.019891747235703, Final residual = 1.7594922726433e-17, No Iterations 1
Phase-1 volume fraction = 0.012968910267778  Min(alpha.water) = 0  Max(alpha.water) = 0.99688808285291
MULES: Correcting alpha.water
MULES: Correcting alpha.water
Phase-1 volume fraction = 0.012968910267778  Min(alpha.water) = -1.4389012635737e-25  Max(alpha.water) = 0.9969062891603
ExecutionTime = 0.61 s  ClockTime = 1 s

Courant Number mean: 0.37499999999999 max: 0.37500000000001
Interface Courant Number mean: 0.0060624999999996 max: 0.375
deltaT = 0.0125
Time = 0.975

smoothSolver:  Solving for alpha.water, Initial residual = 0.02026405440363, Final residual = 1.6923174903215e-17, No Iterations 1
Phase-1 volume fraction = 0.012968910267778  Min(alpha.water) = 0  Max(alpha.water) = 0.99686411869352
MULES: Correcting alpha.water
MULES: Correcting alpha.water
Phase-1 volume fraction = 0.012968910267778  Min(alpha.water) = -1.1659924141541e-25  Max(alpha.water) = 0.99688783516859
ExecutionTime = 0.62 s  ClockTime = 1 s

Courant Number mean: 0.37499999999999 max: 0.37500000000001
Interface Courant Number mean: 0.0061249999999996 max: 0.375
deltaT = 0.0125
Time = 0.9875

smoothSolver:  Solving for alpha.water, Initial residual = 0.020409027270657, Final residual = 1.6348036113164e-17, No Iterations 1
Phase-1 volume fraction = 0.012968910267778  Min(alpha.water) = 0  Max(alpha.water) = 0.99683611165347
MULES: Correcting alpha.water
MULES: Correcting alpha.water
Phase-1 volume fraction = 0.012968910267778  Min(alpha.water) = -9.4287160801471e-26  Max(alpha.water) = 0.99688118609263
ExecutionTime = 0.62 s  ClockTime = 1 s

Courant Number mean: 0.37499999999999 max: 0.37500000000001
Interface Courant Number mean: 0.0061874999999996 max: 0.375
deltaT = 0.0125
Time = 1

smoothSolver:  Solving for alpha.water, Initial residual = 0.020359222204572, Final residual = 2.053926375108e-17, No Iterations 1
Phase-1 volume fraction = 0.012968910267778  Min(alpha.water) = 0  Max(alpha.water) = 0.99680425167139
MULES: Correcting alpha.water
MULES: Correcting alpha.water
Phase-1 volume fraction = 0.012968910267778  Min(alpha.water) = -7.6020756998692e-26  Max(alpha.water) = 0.99685321939313
ExecutionTime = 0.64 s  ClockTime = 1 s

Courant Number mean: 0.37499999999998 max: 0.37500000000001
Interface Courant Number mean: 0.0058749999999996 max: 0.375
deltaT = 0.0125
Time = 1.0125

smoothSolver:  Solving for alpha.water, Initial residual = 0.020295603041414, Final residual = 1.6962663934258e-17, No Iterations 1
Phase-1 volume fraction = 0.012968910267778  Min(alpha.water) = 0  Max(alpha.water) = 0.99677570157811
MULES: Correcting alpha.water
MULES: Correcting alpha.water
Phase-1 volume fraction = 0.012968910267778  Min(alpha.water) = -6.1071687325283e-26  Max(alpha.water) = 0.99685181893924
ExecutionTime = 0.65 s  ClockTime = 1 s

Courant Number mean: 0.37499999999999 max: 0.37500000000001
Interface Courant Number mean: 0.0061249999999996 max: 0.375
deltaT = 0.0125
Time = 1.025

smoothSolver:  Solving for alpha.water, Initial residual = 0.020164183576024, Final residual = 1.6755354360994e-17, No Iterations 1
Phase-1 volume fraction = 0.012968910267778  Min(alpha.water) = 0  Max(alpha.water) = 0.99673616915692
MULES: Correcting alpha.water
MULES: Correcting alpha.water
Phase-1 volume fraction = 0.012968910267778  Min(alpha.water) = -4.8859260707361e-26  Max(alpha.water) = 0.99676572813874
ExecutionTime = 0.65 s  ClockTime = 1 s

Courant Number mean: 0.37499999999999 max: 0.37500000000001
Interface Courant Number mean: 0.0061874999999996 max: 0.375
deltaT = 0.0125
Time = 1.0375

smoothSolver:  Solving for alpha.water, Initial residual = 0.019896647181961, Final residual = 1.9228161200198e-17, No Iterations 1
Phase-1 volume fraction = 0.012968910267778  Min(alpha.water) = 0  Max(alpha.water) = 0.99667961688994
MULES: Correcting alpha.water
MULES: Correcting alpha.water
Phase-1 volume fraction = 0.012968910267778  Min(alpha.water) = -3.5375808534153e-27  Max(alpha.water) = 0.99671931888929
ExecutionTime = 0.66 s  ClockTime = 1 s

Courant Number mean: 0.37499999999999 max: 0.37500000000001
Interface Courant Number mean: 0.0063124999999996 max: 0.375
deltaT = 0.0125
Time = 1.05

smoothSolver:  Solving for alpha.water, Initial residual = 0.019771190149114, Final residual = 1.7941834007094e-17, No Iterations 1
Phase-1 volume fraction = 0.012968910267778  Min(alpha.water) = 0  Max(alpha.water) = 0.99665704507509
MULES: Correcting alpha.water
MULES: Correcting alpha.water
Phase-1 volume fraction = 0.012968910267778  Min(alpha.water) = -2.828592968528e-27  Max(alpha.water) = 0.99670965807382
ExecutionTime = 0.66 s  ClockTime = 1 s

Courant Number mean: 0.37499999999999 max: 0.37500000000001
Interface Courant Number mean: 0.0062499999999996 max: 0.375
deltaT = 0.0125
Time = 1.0625

smoothSolver:  Solving for alpha.water, Initial residual = 0.019898021997798, Final residual = 1.8146817734865e-17, No Iterations 1
Phase-1 volume fraction = 0.012968910267778  Min(alpha.water) = 0  Max(alpha.water) = 0.9966215553662
MULES: Correcting alpha.water
MULES: Correcting alpha.water
Phase-1 volume fraction = 0.012968910267778  Min(alpha.water) = -2.2747076566307e-27  Max(alpha.water) = 0.99665035912562
ExecutionTime = 0.67 s  ClockTime = 1 s

Courant Number mean: 0.37499999999999 max: 0.37500000000001
Interface Courant Number mean: 0.0059999999999996 max: 0.375
deltaT = 0.0125
Time = 1.075

smoothSolver:  Solving for alpha.water, Initial residual = 0.020238624643683, Final residual = 1.8896501537318e-17, No Iterations 1
Phase-1 volume fraction = 0.012968910267778  Min(alpha.water) = 0  Max(alpha.water) = 0.99659615914705
MULES: Correcting alpha.water
MULES: Correcting alpha.water
Phase-1 volume fraction = 0.012968910267778  Min(alpha.water) = -1.8364834532476e-27  Max(alpha.water) = 0.99664552515932
ExecutionTime = 0.67 s  ClockTime = 1 s

Courant Number mean: 0.37499999999999 max: 0.37500000000001
Interface Courant Number mean: 0.0061249999999996 max: 0.375
deltaT = 0.0125
Time = 1.0875

smoothSolver:  Solving for alpha.water, Initial residual = 0.020356071130744, Final residual = 1.6467289997562e-17, No Iterations 1
Phase-1 volume fraction = 0.012968910267778  Min(alpha.water) = 0  Max(alpha.water) = 0.99656822619662
MULES: Correcting alpha.water
MULES: Correcting alpha.water
Phase-1 volume fraction = 0.012968910267778  Min(alpha.water) = -1.485949690005e-27  Max(alpha.water) = 0.99663945654731
ExecutionTime = 0.68 s  ClockTime = 1 s

Courant Number mean: 0.37499999999999 max: 0.37500000000001
Interface Courant Number mean: 0.0063124999999996 max: 0.375
deltaT = 0.0125
Time = 1.1

smoothSolver:  Solving for alpha.water, Initial residual = 0.02029030899601, Final residual = 1.6086517645707e-17, No Iterations 1
Phase-1 volume fraction = 0.012968910267778  Min(alpha.water) = 0  Max(alpha.water) = 0.99653527368672
MULES: Correcting alpha.water
MULES: Correcting alpha.water
Phase-1 volume fraction = 0.012968910267778  Min(alpha.water) = -1.2031177608256e-27  Max(alpha.water) = 0.99658509224998
ExecutionTime = 0.7 s  ClockTime = 1 s

Courant Number mean: 0.37499999999999 max: 0.37500000000001
Interface Courant Number mean: 0.0059374999999997 max: 0.37500000000001
deltaT = 0.0125
Time = 1.1125

smoothSolver:  Solving for alpha.water, Initial residual = 0.02026457695964, Final residual = 1.615690327061e-17, No Iterations 1
Phase-1 volume fraction = 0.012968910267778  Min(alpha.water) = 0  Max(alpha.water) = 0.99650690558833
MULES: Correcting alpha.water
MULES: Correcting alpha.water
Phase-1 volume fraction = 0.012968910267778  Min(alpha.water) = -9.7346081286438e-28  Max(alpha.water) = 0.99659869775137
ExecutionTime = 0.71 s  ClockTime = 1 s

Courant Number mean: 0.37499999999999 max: 0.37500000000001
Interface Courant Number mean: 0.0060624999999996 max: 0.375
deltaT = 0.0125
Time = 1.125

smoothSolver:  Solving for alpha.water, Initial residual = 0.020147093573577, Final residual = 1.6691572472896e-17, No Iterations 1
Phase-1 volume fraction = 0.012968910267778  Min(alpha.water) = 0  Max(alpha.water) = 0.99646927874424
MULES: Correcting alpha.water
MULES: Correcting alpha.water
Phase-1 volume fraction = 0.012968910267778  Min(alpha.water) = -7.8622258235719e-28  Max(alpha.water) = 0.99652636923899
ExecutionTime = 0.71 s  ClockTime = 1 s

Courant Number mean: 0.37499999999999 max: 0.37500000000001
Interface Courant Number mean: 0.0062499999999996 max: 0.375
deltaT = 0.0125
Time = 1.1375

smoothSolver:  Solving for alpha.water, Initial residual = 0.019887449541794, Final residual = 1.9304680898151e-17, No Iterations 1
Phase-1 volume fraction = 0.012968910267778  Min(alpha.water) = -6.9020739451712e-70  Max(alpha.water) = 0.99644665231433
MULES: Correcting alpha.water
MULES: Correcting alpha.water
Phase-1 volume fraction = 0.012968910267778  Min(alpha.water) = -6.3329260037441e-28  Max(alpha.water) = 0.99644665231433
ExecutionTime = 0.72 s  ClockTime = 1 s

Courant Number mean: 0.37499999999999 max: 0.37500000000001
Interface Courant Number mean: 0.0061874999999996 max: 0.375
deltaT = 0.0125
Time = 1.15

smoothSolver:  Solving for alpha.water, Initial residual = 0.019710880046971, Final residual = 1.7480910161146e-17, No Iterations 1
Phase-1 volume fraction = 0.012968910267778  Min(alpha.water) = -5.0196901419427e-70  Max(alpha.water) = 0.99641655085129
MULES: Correcting alpha.water
MULES: Correcting alpha.water
Phase-1 volume fraction = 0.012968910267778  Min(alpha.water) = -5.0838053084612e-28  Max(alpha.water) = 0.99649746438654
ExecutionTime = 0.72 s  ClockTime = 1 s

Courant Number mean: 0.37499999999999 max: 0.37500000000001
Interface Courant Number mean: 0.0062499999999996 max: 0.375
deltaT = 0.0125
Time = 1.1625

smoothSolver:  Solving for alpha.water, Initial residual = 0.019918633837899, Final residual = 1.6652315537643e-17, No Iterations 1
Phase-1 volume fraction = 0.012968910267778  Min(alpha.water) = -3.6506837395947e-70  Max(alpha.water) = 0.99638178576216
MULES: Correcting alpha.water
MULES: Correcting alpha.water
Phase-1 volume fraction = 0.012968910267778  Min(alpha.water) = -4.0649523266765e-28  Max(alpha.water) = 0.99646562776716
ExecutionTime = 0.73 s  ClockTime = 1 s

Courant Number mean: 0.37499999999999 max: 0.37500000000001
Interface Courant Number mean: 0.0059999999999996 max: 0.375
deltaT = 0.0125
Time = 1.175

smoothSolver:  Solving for alpha.water, Initial residual = 0.020239882383348, Final residual = 2.0798376650143e-17, No Iterations 1
Phase-1 volume fraction = 0.012968910267778  Min(alpha.water) = -2.6550427197052e-70  Max(alpha.water) = 0.9963554322421
MULES: Correcting alpha.water
MULES: Correcting alpha.water
Phase-1 volume fraction = 0.012968910267778  Min(alpha.water) = -1.5233197928713e-28  Max(alpha.water) = 0.99644551005836
ExecutionTime = 0.73 s  ClockTime = 1 s

Courant Number mean: 0.37499999999999 max: 0.37500000000001
Interface Courant Number mean: 0.0061874999999996 max: 0.375
deltaT = 0.0125
Time = 1.1875

smoothSolver:  Solving for alpha.water, Initial residual = 0.020272916602939, Final residual = 1.8183576149265e-17, No Iterations 1
Phase-1 volume fraction = 0.012968910267778  Min(alpha.water) = -1.9309401597856e-70  Max(alpha.water) = 0.99632597121668
MULES: Correcting alpha.water
MULES: Correcting alpha.water
Phase-1 volume fraction = 0.012968910267778  Min(alpha.water) = -2.3439783915281e-29  Max(alpha.water) = 0.99641245557444
ExecutionTime = 0.74 s  ClockTime = 1 s

Courant Number mean: 0.37499999999999 max: 0.37500000000001
Interface Courant Number mean: 0.0062499999999996 max: 0.375
deltaT = 0.0125
Time = 1.2

smoothSolver:  Solving for alpha.water, Initial residual = 0.020242452311033, Final residual = 1.5242854321781e-17, No Iterations 1
Phase-1 volume fraction = 0.012968910267778  Min(alpha.water) = -1.4043201162077e-70  Max(alpha.water) = 0.99629161473304
MULES: Correcting alpha.water
MULES: Correcting alpha.water
Phase-1 volume fraction = 0.012968910267778  Min(alpha.water) = -1.8792497693452e-29  Max(alpha.water) = 0.99644551548891
ExecutionTime = 0.76 s  ClockTime = 1 s

Courant Number mean: 0.37499999999999 max: 0.37500000000001
Interface Courant Number mean: 0.0059374999999997 max: 0.37500000000001
deltaT = 0.0125
Time = 1.2125

smoothSolver:  Solving for alpha.water, Initial residual = 0.020211399016975, Final residual = 1.4579508484651e-17, No Iterations 1
Phase-1 volume fraction = 0.012968910267778  Min(alpha.water) = -1.0213237208783e-70  Max(alpha.water) = 0.99628779596981
MULES: Correcting alpha.water
MULES: Correcting alpha.water
Phase-1 volume fraction = 0.012968910267778  Min(alpha.water) = -1.5133972663014e-29  Max(alpha.water) = 0.99638293808087
ExecutionTime = 0.76 s  ClockTime = 1 s

Courant Number mean: 0.37499999999999 max: 0.37500000000001
Interface Courant Number mean: 0.0061249999999996 max: 0.375
deltaT = 0.0125
Time = 1.225

smoothSolver:  Solving for alpha.water, Initial residual = 0.020097078196947, Final residual = 1.7391787983098e-17, No Iterations 1
Phase-1 volume fraction = 0.012968910267778  Min(alpha.water) = -7.4231211430088e-71  Max(alpha.water) = 0.99624889899826
MULES: Correcting alpha.water
MULES: Correcting alpha.water
Phase-1 volume fraction = 0.012968910267778  Min(alpha.water) = -1.2220792868532e-29  Max(alpha.water) = 0.99634645084832
ExecutionTime = 0.77 s  ClockTime = 1 s

Courant Number mean: 0.37499999999999 max: 0.37500000000001
Interface Courant Number mean: 0.0063124999999995 max: 0.375
deltaT = 0.0125
Time = 1.2375

smoothSolver:  Solving for alpha.water, Initial residual = 0.019881509481624, Final residual = 1.8339867139164e-17, No Iterations 1
Phase-1 volume fraction = 0.012968910267778  Min(alpha.water) = -5.3985990707314e-71  Max(alpha.water) = 0.99623697245823
MULES: Correcting alpha.water
MULES: Correcting alpha.water
Phase-1 volume fraction = 0.012968910267778  Min(alpha.water) = -9.8793572447815e-30  Max(alpha.water) = 0.99623695281463
ExecutionTime = 0.77 s  ClockTime = 1 s

Courant Number mean: 0.37499999999999 max: 0.37500000000001
Interface Courant Number mean: 0.0063124999999995 max: 0.375
deltaT = 0.0125
Time = 1.25

smoothSolver:  Solving for alpha.water, Initial residual = 0.019776377047697, Final residual = 1.8962825092441e-17, No Iterations 1
Phase-1 volume fraction = 0.012968910267778  Min(alpha.water) = -3.9262533210794e-71  Max(alpha.water) = 0.99620357399536
MULES: Correcting alpha.water
MULES: Correcting alpha.water
Phase-1 volume fraction = 0.012968910267778  Min(alpha.water) = -7.9843388562451e-30  Max(alpha.water) = 0.99630385227822
ExecutionTime = 0.78 s  ClockTime = 1 s

Courant Number mean: 0.37499999999999 max: 0.37500000000001
Interface Courant Number mean: 0.0061874999999996 max: 0.375
deltaT = 0.0125
Time = 1.2625

smoothSolver:  Solving for alpha.water, Initial residual = 0.019925627784119, Final residual = 1.8438636050433e-17, No Iterations 1
Phase-1 volume fraction = 0.012968910267778  Min(alpha.water) = -2.8554569588667e-71  Max(alpha.water) = 0.99616942273237
MULES: Correcting alpha.water
MULES: Correcting alpha.water
Phase-1 volume fraction = 0.012968910267778  Min(alpha.water) = -6.443555060905e-30  Max(alpha.water) = 0.99630698940403
ExecutionTime = 0.78 s  ClockTime = 1 s

Courant Number mean: 0.37499999999999 max: 0.37500000000001
Interface Courant Number mean: 0.0058749999999996 max: 0.375
deltaT = 0.0125
Time = 1.275

smoothSolver:  Solving for alpha.water, Initial residual = 0.020204832132722, Final residual = 1.8471772572866e-17, No Iterations 1
Phase-1 volume fraction = 0.012968910267778  Min(alpha.water) = -2.0766959700849e-71  Max(alpha.water) = 0.9961416829639
MULES: Correcting alpha.water
MULES: Correcting alpha.water
Phase-1 volume fraction = 0.012968910267778  Min(alpha.water) = -5.1876764024811e-30  Max(alpha.water) = 0.99625535759027
ExecutionTime = 0.79 s  ClockTime = 1 s

Courant Number mean: 0.37499999999999 max: 0.37500000000001
Interface Courant Number mean: 0.0063124999999996 max: 0.375
deltaT = 0.0125
Time = 1.2875

smoothSolver:  Solving for alpha.water, Initial residual = 0.020231690385442, Final residual = 1.7009065628857e-17, No Iterations 1
Phase-1 volume fraction = 0.012968910267778  Min(alpha.water) = -1.5103243418793e-71  Max(alpha.water) = 0.99610590025446
MULES: Correcting alpha.water
MULES: Correcting alpha.water
Phase-1 volume fraction = 0.012968910267778  Min(alpha.water) = -4.1634158360332e-30  Max(alpha.water) = 0.99620950450895
ExecutionTime = 0.79 s  ClockTime = 1 s

Courant Number mean: 0.37499999999999 max: 0.37500000000001
Interface Courant Number mean: 0.0063124999999996 max: 0.375
deltaT = 0.0125
Time = 1.3

smoothSolver:  Solving for alpha.water, Initial residual = 0.020188408581668, Final residual = 1.4535184642455e-17, No Iterations 1
Phase-1 volume fraction = 0.012968910267778  Min(alpha.water) = -1.098417703185e-71  Max(alpha.water) = 0.99607024565014
MULES: Correcting alpha.water
MULES: Correcting alpha.water
Phase-1 volume fraction = 0.012968910267778  Min(alpha.water) = -3.3288892058013e-30  Max(alpha.water) = 0.99620186126892
ExecutionTime = 0.81 s  ClockTime = 1 s

Courant Number mean: 0.37499999999998 max: 0.37500000000001
Interface Courant Number mean: 0.0058749999999996 max: 0.375
deltaT = 0.0125
Time = 1.3125

smoothSolver:  Solving for alpha.water, Initial residual = 0.020170219349719, Final residual = 1.975225459817e-17, No Iterations 1
Phase-1 volume fraction = 0.012968910267778  Min(alpha.water) = -7.9884923867996e-72  Max(alpha.water) = 0.9960868735373
MULES: Correcting alpha.water
MULES: Correcting alpha.water
Phase-1 volume fraction = 0.012968910267778  Min(alpha.water) = -2.6505011976903e-30  Max(alpha.water) = 0.99618927419263
ExecutionTime = 0.81 s  ClockTime = 1 s

Courant Number mean: 0.37499999999999 max: 0.37500000000001
Interface Courant Number mean: 0.0061874999999996 max: 0.375
deltaT = 0.0125
Time = 1.325

smoothSolver:  Solving for alpha.water, Initial residual = 0.020018826998774, Final residual = 1.8560081627814e-17, No Iterations 1
Phase-1 volume fraction = 0.012968910267778  Min(alpha.water) = -5.8098126449452e-72  Max(alpha.water) = 0.9960434622223
MULES: Correcting alpha.water
MULES: Correcting alpha.water
Phase-1 volume fraction = 0.012968910267778  Min(alpha.water) = -1.912779584152e-31  Max(alpha.water) = 0.99616866731026
ExecutionTime = 0.82 s  ClockTime = 1 s

Courant Number mean: 0.37499999999999 max: 0.37500000000001
Interface Courant Number mean: 0.0063124999999996 max: 0.375
deltaT = 0.0125
Time = 1.3375

smoothSolver:  Solving for alpha.water, Initial residual = 0.019875573641559, Final residual = 1.6765931293113e-17, No Iterations 1
Phase-1 volume fraction = 0.012968910267778  Min(alpha.water) = -4.2253182872329e-72  Max(alpha.water) = 0.99603511422497
MULES: Correcting alpha.water
MULES: Correcting alpha.water
Phase-1 volume fraction = 0.012968910267778  Min(alpha.water) = -1.5287858142027e-31  Max(alpha.water) = 0.9960865087392
ExecutionTime = 0.82 s  ClockTime = 1 s

Courant Number mean: 0.37499999999999 max: 0.37500000000001
Interface Courant Number mean: 0.0063124999999996 max: 0.375
deltaT = 0.0125
Time = 1.35

smoothSolver:  Solving for alpha.water, Initial residual = 0.019866050863248, Final residual = 1.7497888243348e-17, No Iterations 1
Phase-1 volume fraction = 0.012968910267778  Min(alpha.water) = -3.0729587543512e-72  Max(alpha.water) = 0.99604631601704
MULES: Correcting alpha.water
MULES: Correcting alpha.water
Phase-1 volume fraction = 0.012968910267778  Min(alpha.water) = -1.2280780115599e-31  Max(alpha.water) = 0.99614753701738
ExecutionTime = 0.83 s  ClockTime = 1 s

Courant Number mean: 0.37499999999999 max: 0.37500000000001
Interface Courant Number mean: 0.0060624999999996 max: 0.375
deltaT = 0.0125
Time = 1.3625

smoothSolver:  Solving for alpha.water, Initial residual = 0.01992886319015, Final residual = 1.9958626571228e-17, No Iterations 1
Phase-1 volume fraction = 0.012968910267778  Min(alpha.water) = -2.2348790940736e-72  Max(alpha.water) = 0.99600478825411
MULES: Correcting alpha.water
MULES: Correcting alpha.water
Phase-1 volume fraction = 0.012968910267778  Min(alpha.water) = -9.897766296274e-32  Max(alpha.water) = 0.99615897478386
ExecutionTime = 0.83 s  ClockTime = 1 s

Courant Number mean: 0.37499999999999 max: 0.37500000000001
Interface Courant Number mean: 0.0058749999999996 max: 0.375
deltaT = 0.0125
Time = 1.375

smoothSolver:  Solving for alpha.water, Initial residual = 0.02012057226876, Final residual = 1.9612816370224e-17, No Iterations 1
Phase-1 volume fraction = 0.012968910267778  Min(alpha.water) = -1.6253666138717e-72  Max(alpha.water) = 0.99597716046279
MULES: Correcting alpha.water
MULES: Correcting alpha.water
Phase-1 volume fraction = 0.012968910267778  Min(alpha.water) = -7.990364965192e-32  Max(alpha.water) = 0.996104888173
ExecutionTime = 0.84 s  ClockTime = 1 s

Courant Number mean: 0.37499999999999 max: 0.37500000000001
Interface Courant Number mean: 0.0063124999999996 max: 0.37500000000001
deltaT = 0.0125
Time = 1.3875

smoothSolver:  Solving for alpha.water, Initial residual = 0.020181074274673, Final residual = 1.8278471552244e-17, No Iterations 1
Phase-1 volume fraction = 0.012968910267778  Min(alpha.water) = -1.2894888681259e-72  Max(alpha.water) = 0.995937969684
MULES: Correcting alpha.water
MULES: Correcting alpha.water
Phase-1 volume fraction = 0.012968910267778  Min(alpha.water) = -6.4518168248502e-32  Max(alpha.water) = 0.99605164365767
ExecutionTime = 0.84 s  ClockTime = 1 s

Courant Number mean: 0.37499999999999 max: 0.37500000000001
Interface Courant Number mean: 0.0064374999999996 max: 0.375
deltaT = 0.0125
Time = 1.4

smoothSolver:  Solving for alpha.water, Initial residual = 0.020171280554571, Final residual = 1.4849229750403e-17, No Iterations 1
Phase-1 volume fraction = 0.012968910267778  Min(alpha.water) = -1.0941185609706e-72  Max(alpha.water) = 0.99589986057114
MULES: Correcting alpha.water
MULES: Correcting alpha.water
Phase-1 volume fraction = 0.012968910267778  Min(alpha.water) = -5.2041202752508e-32  Max(alpha.water) = 0.99601379537967
ExecutionTime = 0.86 s  ClockTime = 1 s

Courant Number mean: 0.37499999999998 max: 0.37500000000001
Interface Courant Number mean: 0.0061874999999995 max: 0.375
deltaT = 0.0125
Time = 1.4125

smoothSolver:  Solving for alpha.water, Initial residual = 0.020122518838992, Final residual = 1.8175990081799e-17, No Iterations 1
Phase-1 volume fraction = 0.012968910267778  Min(alpha.water) = -9.0940165745582e-73  Max(alpha.water) = 0.99589151020492
MULES: Correcting alpha.water
MULES: Correcting alpha.water
Phase-1 volume fraction = 0.012968910267778  Min(alpha.water) = -4.1891334510092e-32  Max(alpha.water) = 0.99602823215439
ExecutionTime = 0.86 s  ClockTime = 1 s

Courant Number mean: 0.37499999999999 max: 0.37500000000001
Interface Courant Number mean: 0.0060624999999996 max: 0.375
deltaT = 0.0125
Time = 1.425

smoothSolver:  Solving for alpha.water, Initial residual = 0.019973741380157, Final residual = 1.7899239824102e-17, No Iterations 1
Phase-1 volume fraction = 0.012968910267778  Min(alpha.water) = -7.4405871703419e-73  Max(alpha.water) = 0.9958592012542
MULES: Correcting alpha.water
MULES: Correcting alpha.water
Phase-1 volume fraction = 0.012968910267778  Min(alpha.water) = -3.362475636959e-32  Max(alpha.water) = 0.99600013681531
ExecutionTime = 0.87 s  ClockTime = 1 s

Courant Number mean: 0.37499999999999 max: 0.37500000000001
[...]

smoothSolver:  Solving for alpha.water, Initial residual = 0.019570782986823, Final residual = 1.6249499961616e-17, No Iterations 1
Phase-1 volume fraction = 0.012968910267778  Min(alpha.water) = -8.0194764330515e-92  Max(alpha.water) = 0.98947790951799
MULES: Correcting alpha.water
MULES: Correcting alpha.water
Phase-1 volume fraction = 0.012968910267778  Min(alpha.water) = -6.0267510442559e-65  Max(alpha.water) = 0.98990775340084
ExecutionTime = 2.08 s  ClockTime = 2 s

Courant Number mean: 0.37499999999999 max: 0.37500000000001
Interface Courant Number mean: 0.0084999999999994 max: 0.37500000000001
deltaT = 0.0125
Time = 3.625

smoothSolver:  Solving for alpha.water, Initial residual = 0.019333459338514, Final residual = 1.689987118461e-17, No Iterations 1
Phase-1 volume fraction = 0.012968910267778  Min(alpha.water) = -5.9875285857415e-92  Max(alpha.water) = 0.98939845531889
MULES: Correcting alpha.water
MULES: Correcting alpha.water
Phase-1 volume fraction = 0.012968910267778  Min(alpha.water) = -4.7792964496447e-65  Max(alpha.water) = 0.98975398127211
ExecutionTime = 2.08 s  ClockTime = 2 s

Courant Number mean: 0.37499999999999 max: 0.37500000000001
Interface Courant Number mean: 0.0083749999999994 max: 0.37500000000001
deltaT = 0.0125
Time = 3.6375

smoothSolver:  Solving for alpha.water, Initial residual = 0.019024166077552, Final residual = 1.6867700710201e-17, No Iterations 1
Phase-1 volume fraction = 0.012968910267778  Min(alpha.water) = -4.4698065159833e-92  Max(alpha.water) = 0.98932288133779
MULES: Correcting alpha.water
MULES: Correcting alpha.water
Phase-1 volume fraction = 0.012968910267778  Min(alpha.water) = -3.7753873023488e-65  Max(alpha.water) = 0.98971106848646
ExecutionTime = 2.09 s  ClockTime = 2 s

Courant Number mean: 0.37499999999998 max: 0.37500000000001
Interface Courant Number mean: 0.0083124999999994 max: 0.375
deltaT = 0.0125
Time = 3.65

smoothSolver:  Solving for alpha.water, Initial residual = 0.018776349754528, Final residual = 1.8408783507786e-17, No Iterations 1
Phase-1 volume fraction = 0.012968910267778  Min(alpha.water) = -3.3363383814794e-92  Max(alpha.water) = 0.98926936482722
MULES: Correcting alpha.water
MULES: Correcting alpha.water
Phase-1 volume fraction = 0.012968910267778  Min(alpha.water) = -2.6996738446442e-66  Max(alpha.water) = 0.98970834958951
ExecutionTime = 2.09 s  ClockTime = 2 s

Courant Number mean: 0.37499999999999 max: 0.37500000000001
Interface Courant Number mean: 0.0083124999999994 max: 0.37500000000001
deltaT = 0.0125
Time = 3.6625

smoothSolver:  Solving for alpha.water, Initial residual = 0.018922241860153, Final residual = 1.6839893060639e-17, No Iterations 1
Phase-1 volume fraction = 0.012968910267778  Min(alpha.water) = -2.4899601246031e-92  Max(alpha.water) = 0.98927875954404
MULES: Correcting alpha.water
MULES: Correcting alpha.water
Phase-1 volume fraction = 0.012968910267778  Min(alpha.water) = -2.1374414632799e-66  Max(alpha.water) = 0.98964674660841
ExecutionTime = 2.1 s  ClockTime = 2 s

Courant Number mean: 0.37499999999998 max: 0.37500000000001
Interface Courant Number mean: 0.0084374999999994 max: 0.375
deltaT = 0.0125
Time = 3.675

smoothSolver:  Solving for alpha.water, Initial residual = 0.01929610918144, Final residual = 1.7202260915844e-17, No Iterations 1
Phase-1 volume fraction = 0.012968910267778  Min(alpha.water) = -1.8580453235426e-92  Max(alpha.water) = 0.98919592662542
MULES: Correcting alpha.water
MULES: Correcting alpha.water
Phase-1 volume fraction = 0.012968910267778  Min(alpha.water) = -1.701267432983e-66  Max(alpha.water) = 0.98960329180444
ExecutionTime = 2.1 s  ClockTime = 2 s

Courant Number mean: 0.37499999999998 max: 0.375
Interface Courant Number mean: 0.0081874999999993 max: 0.375
deltaT = 0.0125
Time = 3.6875

smoothSolver:  Solving for alpha.water, Initial residual = 0.019538247055777, Final residual = 1.6943532592879e-17, No Iterations 1
Phase-1 volume fraction = 0.012968910267778  Min(alpha.water) = -1.3863168172075e-92  Max(alpha.water) = 0.98910692820579
MULES: Correcting alpha.water
MULES: Correcting alpha.water
Phase-1 volume fraction = 0.012968910267778  Min(alpha.water) = -1.3590196172962e-66  Max(alpha.water) = 0.98951997878595
ExecutionTime = 2.11 s  ClockTime = 2 s

Courant Number mean: 0.37499999999998 max: 0.37500000000001
Interface Courant Number mean: 0.0081249999999994 max: 0.375
deltaT = 0.0125
Time = 3.7

smoothSolver:  Solving for alpha.water, Initial residual = 0.019588424142134, Final residual = 1.7263492230776e-17, No Iterations 1
Phase-1 volume fraction = 0.012968910267778  Min(alpha.water) = -1.0342168520526e-92  Max(alpha.water) = 0.9889893813172
MULES: Correcting alpha.water
MULES: Correcting alpha.water
Phase-1 volume fraction = 0.012968910267778  Min(alpha.water) = -1.0878688213779e-66  Max(alpha.water) = 0.98954642450891
ExecutionTime = 2.13 s  ClockTime = 2 s

Courant Number mean: 0.37499999999999 max: 0.37500000000001
Interface Courant Number mean: 0.0084374999999995 max: 0.37500000000001
deltaT = 0.0125
Time = 3.7125

smoothSolver:  Solving for alpha.water, Initial residual = 0.019544400894702, Final residual = 1.6074119244726e-17, No Iterations 1
Phase-1 volume fraction = 0.012968910267778  Min(alpha.water) = -7.7144381459377e-93  Max(alpha.water) = 0.9889168531609
MULES: Correcting alpha.water
MULES: Correcting alpha.water
Phase-1 volume fraction = 0.012968910267778  Min(alpha.water) = -8.7140329527394e-67  Max(alpha.water) = 0.98937359504604
ExecutionTime = 2.13 s  ClockTime = 2 s

Courant Number mean: 0.37499999999999 max: 0.37500000000001
Interface Courant Number mean: 0.0084999999999994 max: 0.37500000000001
deltaT = 0.0125
Time = 3.725

smoothSolver:  Solving for alpha.water, Initial residual = 0.019316876476993, Final residual = 1.6206043155074e-17, No Iterations 1
Phase-1 volume fraction = 0.012968910267778  Min(alpha.water) = -5.7536202720798e-93  Max(alpha.water) = 0.98889258911641
MULES: Correcting alpha.water
MULES: Correcting alpha.water
Phase-1 volume fraction = 0.012968910267778  Min(alpha.water) = -6.9764186555953e-67  Max(alpha.water) = 0.9892423376206
ExecutionTime = 2.14 s  ClockTime = 2 s

Courant Number mean: 0.37499999999999 max: 0.37500000000001
Interface Courant Number mean: 0.0084374999999994 max: 0.37500000000001
deltaT = 0.0125
Time = 3.7375

smoothSolver:  Solving for alpha.water, Initial residual = 0.019039538115469, Final residual = 1.6126462393265e-17, No Iterations 1
Phase-1 volume fraction = 0.012968910267778  Min(alpha.water) = -4.2906482660105e-93  Max(alpha.water) = 0.98880356710527
MULES: Correcting alpha.water
MULES: Correcting alpha.water
Phase-1 volume fraction = 0.012968910267778  Min(alpha.water) = -5.5767683014537e-67  Max(alpha.water) = 0.98919711576214
ExecutionTime = 2.14 s  ClockTime = 2 s

Courant Number mean: 0.37499999999998 max: 0.37500000000001
Interface Courant Number mean: 0.0083124999999994 max: 0.375
deltaT = 0.0125
Time = 3.75

smoothSolver:  Solving for alpha.water, Initial residual = 0.018774395015359, Final residual = 1.7238540298707e-17, No Iterations 1
Phase-1 volume fraction = 0.012968910267778  Min(alpha.water) = -3.1992638897671e-93  Max(alpha.water) = 0.98874088295083
MULES: Correcting alpha.water
MULES: Correcting alpha.water
Phase-1 volume fraction = 0.012968910267778  Min(alpha.water) = -4.4474931435978e-67  Max(alpha.water) = 0.98920157893032
ExecutionTime = 2.15 s  ClockTime = 2 s

Courant Number mean: 0.37499999999998 max: 0.375
Interface Courant Number mean: 0.0082499999999994 max: 0.375
deltaT = 0.0125
Time = 3.7625

smoothSolver:  Solving for alpha.water, Initial residual = 0.018945781965583, Final residual = 1.6206879618761e-17, No Iterations 1
Phase-1 volume fraction = 0.012968910267778  Min(alpha.water) = -2.3851914560251e-93  Max(alpha.water) = 0.98872903056409
MULES: Correcting alpha.water
MULES: Correcting alpha.water
Phase-1 volume fraction = 0.012968910267778  Min(alpha.water) = -3.5362657505977e-67  Max(alpha.water) = 0.98914734730412
ExecutionTime = 2.15 s  ClockTime = 2 s

Courant Number mean: 0.37499999999998 max: 0.37500000000001
Interface Courant Number mean: 0.0084374999999994 max: 0.375
deltaT = 0.0125
Time = 3.775

smoothSolver:  Solving for alpha.water, Initial residual = 0.019295550131438, Final residual = 1.8937273919459e-17, No Iterations 1
Phase-1 volume fraction = 0.012968910267778  Min(alpha.water) = -1.7780462127322e-93  Max(alpha.water) = 0.98864688673623
MULES: Correcting alpha.water
MULES: Correcting alpha.water
Phase-1 volume fraction = 0.012968910267778  Min(alpha.water) = -2.8018363614543e-67  Max(alpha.water) = 0.98903021887816
ExecutionTime = 2.16 s  ClockTime = 2 s

Courant Number mean: 0.37499999999999 max: 0.37500000000001
Interface Courant Number mean: 0.0081249999999994 max: 0.37500000000001
deltaT = 0.0125
Time = 3.7875

smoothSolver:  Solving for alpha.water, Initial residual = 0.019489952745102, Final residual = 1.7383913483024e-17, No Iterations 1
Phase-1 volume fraction = 0.012968910267778  Min(alpha.water) = -1.3252873121853e-93  Max(alpha.water) = 0.98855411237204
MULES: Correcting alpha.water
MULES: Correcting alpha.water
Phase-1 volume fraction = 0.012968910267778  Min(alpha.water) = -2.2112101714932e-67  Max(alpha.water) = 0.9890016237151
ExecutionTime = 2.16 s  ClockTime = 2 s

Courant Number mean: 0.37499999999998 max: 0.37500000000001
Interface Courant Number mean: 0.0081874999999994 max: 0.375
deltaT = 0.0125
Time = 3.8

smoothSolver:  Solving for alpha.water, Initial residual = 0.019531797531827, Final residual = 1.6786342220105e-17, No Iterations 1
Phase-1 volume fraction = 0.012968910267778  Min(alpha.water) = -9.8769942349333e-94  Max(alpha.water) = 0.9884275279518
MULES: Correcting alpha.water
MULES: Correcting alpha.water
Phase-1 volume fraction = 0.012968910267778  Min(alpha.water) = -1.5821703780043e-68  Max(alpha.water) = 0.98901343912254
ExecutionTime = 2.18 s  ClockTime = 2 s

Courant Number mean: 0.37499999999998 max: 0.375
Interface Courant Number mean: 0.0083749999999992 max: 0.375
deltaT = 0.0125
Time = 3.8125

smoothSolver:  Solving for alpha.water, Initial residual = 0.019496397741059, Final residual = 1.9409681664235e-17, No Iterations 1
Phase-1 volume fraction = 0.012968910267778  Min(alpha.water) = -7.3601706323196e-94  Max(alpha.water) = 0.98834777743575
MULES: Correcting alpha.water
MULES: Correcting alpha.water
Phase-1 volume fraction = 0.012968910267778  Min(alpha.water) = -3.1635401442242e-65  Max(alpha.water) = 0.98882890599225
ExecutionTime = 2.19 s  ClockTime = 2 s

Courant Number mean: 0.37499999999999 max: 0.37500000000001
Interface Courant Number mean: 0.0084374999999994 max: 0.37500000000001
deltaT = 0.0125
Time = 3.825

smoothSolver:  Solving for alpha.water, Initial residual = 0.01931332135685, Final residual = 1.7932328724639e-17, No Iterations 1
Phase-1 volume fraction = 0.012968910267778  Min(alpha.water) = -5.4840301836285e-94  Max(alpha.water) = 0.98832679677745
MULES: Correcting alpha.water
MULES: Correcting alpha.water
Phase-1 volume fraction = 0.012968910267778  Min(alpha.water) = -2.2287398053361e-63  Max(alpha.water) = 0.98871193397852
ExecutionTime = 2.19 s  ClockTime = 2 s

Courant Number mean: 0.37499999999999 max: 0.37500000000001
Interface Courant Number mean: 0.0084374999999994 max: 0.37500000000001
deltaT = 0.0125
Time = 3.8375

smoothSolver:  Solving for alpha.water, Initial residual = 0.019051923321049, Final residual = 1.7631865792998e-17, No Iterations 1
Phase-1 volume fraction = 0.012968910267778  Min(alpha.water) = -4.0856503845966e-94  Max(alpha.water) = 0.98824327030273
MULES: Correcting alpha.water
MULES: Correcting alpha.water
Phase-1 volume fraction = 0.012968910267778  Min(alpha.water) = -3.9699673794526e-63  Max(alpha.water) = 0.98866221947273
ExecutionTime = 2.2 s  ClockTime = 2 s

Courant Number mean: 0.37499999999998 max: 0.37500000000001
Interface Courant Number mean: 0.0083749999999994 max: 0.375
deltaT = 0.0125
Time = 3.85

smoothSolver:  Solving for alpha.water, Initial residual = 0.018814927144305, Final residual = 1.5450705379202e-17, No Iterations 1
Phase-1 volume fraction = 0.012968910267778  Min(alpha.water) = -3.0434943909016e-94  Max(alpha.water) = 0.98819272334761
MULES: Correcting alpha.water
MULES: Correcting alpha.water
Phase-1 volume fraction = 0.012968910267778  Min(alpha.water) = -5.3545365881593e-63  Max(alpha.water) = 0.98866948595005
ExecutionTime = 2.2 s  ClockTime = 2 s

Courant Number mean: 0.37499999999999 max: 0.37500000000001
Interface Courant Number mean: 0.0082499999999994 max: 0.37500000000001
deltaT = 0.0125
Time = 3.8625

smoothSolver:  Solving for alpha.water, Initial residual = 0.018974627879069, Final residual = 1.7042233627497e-17, No Iterations 1
Phase-1 volume fraction = 0.012968910267778  Min(alpha.water) = -2.2669099727051e-94  Max(alpha.water) = 0.98814523428161
MULES: Correcting alpha.water
MULES: Correcting alpha.water
Phase-1 volume fraction = 0.012968910267778  Min(alpha.water) = -6.0667179577624e-63  Max(alpha.water) = 0.98861105723283
ExecutionTime = 2.21 s  ClockTime = 2 s

Courant Number mean: 0.37499999999998 max: 0.37500000000001
Interface Courant Number mean: 0.0083749999999994 max: 0.375
deltaT = 0.0125
Time = 3.875

smoothSolver:  Solving for alpha.water, Initial residual = 0.019291666779602, Final residual = 1.7762187224745e-17, No Iterations 1
Phase-1 volume fraction = 0.012968910267778  Min(alpha.water) = -1.6882898730672e-94  Max(alpha.water) = 0.98806617701869
MULES: Correcting alpha.water
MULES: Correcting alpha.water
Phase-1 volume fraction = 0.012968910267778  Min(alpha.water) = -7.5756990399325e-63  Max(alpha.water) = 0.98846969515933
ExecutionTime = 2.21 s  ClockTime = 2 s

Courant Number mean: 0.37499999999998 max: 0.375
Interface Courant Number mean: 0.0081874999999993 max: 0.375
deltaT = 0.0125
Time = 3.8875

smoothSolver:  Solving for alpha.water, Initial residual = 0.019415888883824, Final residual = 1.9346213885996e-17, No Iterations 1
Phase-1 volume fraction = 0.012968910267778  Min(alpha.water) = -1.2572198722998e-94  Max(alpha.water) = 0.98796759946983
MULES: Correcting alpha.water
MULES: Correcting alpha.water
Phase-1 volume fraction = 0.012968910267778  Min(alpha.water) = -7.8549183741349e-63  Max(alpha.water) = 0.98847666219814
ExecutionTime = 2.22 s  ClockTime = 2 s

Courant Number mean: 0.37499999999998 max: 0.37500000000001
Interface Courant Number mean: 0.0081874999999994 max: 0.375
deltaT = 0.0125
Time = 3.9

smoothSolver:  Solving for alpha.water, Initial residual = 0.019471086682243, Final residual = 1.8162116702778e-17, No Iterations 1
Phase-1 volume fraction = 0.012968910267778  Min(alpha.water) = -9.3611118405836e-95  Max(alpha.water) = 0.98783588393165
MULES: Correcting alpha.water
MULES: Correcting alpha.water
Phase-1 volume fraction = 0.012968910267778  Min(alpha.water) = -9.2149991189474e-63  Max(alpha.water) = 0.9884816540688
ExecutionTime = 2.24 s  ClockTime = 2 s

Courant Number mean: 0.37499999999999 max: 0.37500000000001
Interface Courant Number mean: 0.0083749999999995 max: 0.37500000000001
deltaT = 0.0125
Time = 3.9125

smoothSolver:  Solving for alpha.water, Initial residual = 0.019429426369852, Final residual = 1.6213539373568e-17, No Iterations 1
Phase-1 volume fraction = 0.012968910267778  Min(alpha.water) = -6.9694112773837e-95  Max(alpha.water) = 0.98774713966013
MULES: Correcting alpha.water
MULES: Correcting alpha.water
Phase-1 volume fraction = 0.012968910267778  Min(alpha.water) = -9.4968145396232e-63  Max(alpha.water) = 0.98824453176454
ExecutionTime = 2.24 s  ClockTime = 2 s

Courant Number mean: 0.37499999999998 max: 0.37500000000001
Interface Courant Number mean: 0.0084374999999994 max: 0.375
deltaT = 0.0125
Time = 3.925

smoothSolver:  Solving for alpha.water, Initial residual = 0.019294967250061, Final residual = 1.8674199206256e-17, No Iterations 1
Phase-1 volume fraction = 0.012968910267778  Min(alpha.water) = -5.1882117910985e-95  Max(alpha.water) = 0.98772800288522
MULES: Correcting alpha.water
MULES: Correcting alpha.water
Phase-1 volume fraction = 0.012968910267778  Min(alpha.water) = -1.0996097244953e-62  Max(alpha.water) = 0.98813371832728
ExecutionTime = 2.25 s  ClockTime = 2 s

Courant Number mean: 0.37499999999998 max: 0.375
Interface Courant Number mean: 0.0084999999999993 max: 0.375
deltaT = 0.0125
Time = 3.9375

smoothSolver:  Solving for alpha.water, Initial residual = 0.01904938811893, Final residual = 1.9431736320539e-17, No Iterations 1
Phase-1 volume fraction = 0.012968910267778  Min(alpha.water) = -3.8618261034397e-95  Max(alpha.water) = 0.98765623115037
MULES: Correcting alpha.water
MULES: Correcting alpha.water
Phase-1 volume fraction = 0.012968910267778  Min(alpha.water) = -1.1987140873732e-62  Max(alpha.water) = 0.98812549590576
ExecutionTime = 2.25 s  ClockTime = 2 s

Courant Number mean: 0.37499999999998 max: 0.37500000000001
Interface Courant Number mean: 0.0083749999999994 max: 0.375
deltaT = 0.0125
Time = 3.95

smoothSolver:  Solving for alpha.water, Initial residual = 0.018850188945398, Final residual = 1.9436079088515e-17, No Iterations 1
Phase-1 volume fraction = 0.012968910267778  Min(alpha.water) = -2.8742306108708e-95  Max(alpha.water) = 0.98761271294712
MULES: Correcting alpha.water
MULES: Correcting alpha.water
Phase-1 volume fraction = 0.012968910267778  Min(alpha.water) = -1.3131038566785e-62  Max(alpha.water) = 0.98811007415616
ExecutionTime = 2.26 s  ClockTime = 2 s

Courant Number mean: 0.37499999999999 max: 0.37500000000001
Interface Courant Number mean: 0.0081249999999994 max: 0.375
deltaT = 0.0125
Time = 3.9625

smoothSolver:  Solving for alpha.water, Initial residual = 0.01903764371481, Final residual = 1.4866560908989e-17, No Iterations 1
Phase-1 volume fraction = 0.012968910267778  Min(alpha.water) = -2.1389707369046e-95  Max(alpha.water) = 0.9875740634726
MULES: Correcting alpha.water
MULES: Correcting alpha.water
Phase-1 volume fraction = 0.012968910267778  Min(alpha.water) = -1.3903416004516e-62  Max(alpha.water) = 0.98804569812328
ExecutionTime = 2.26 s  ClockTime = 2 s

Courant Number mean: 0.37499999999998 max: 0.37500000000001
Interface Courant Number mean: 0.0083124999999994 max: 0.375
deltaT = 0.0125
Time = 3.975

smoothSolver:  Solving for alpha.water, Initial residual = 0.019278693825612, Final residual = 1.538197312417e-17, No Iterations 1
Phase-1 volume fraction = 0.012968910267778  Min(alpha.water) = -1.5916327307313e-95  Max(alpha.water) = 0.98748376957546
MULES: Correcting alpha.water
MULES: Correcting alpha.water
Phase-1 volume fraction = 0.012968910267778  Min(alpha.water) = -1.5498981857519e-62  Max(alpha.water) = 0.98790005558208
ExecutionTime = 2.27 s  ClockTime = 2 s

Courant Number mean: 0.37499999999998 max: 0.375
Interface Courant Number mean: 0.0083124999999993 max: 0.375
deltaT = 0.0125
Time = 3.9875

smoothSolver:  Solving for alpha.water, Initial residual = 0.019359477201088, Final residual = 1.7945740673173e-17, No Iterations 1
Phase-1 volume fraction = 0.012968910267778  Min(alpha.water) = -1.1842301345067e-95  Max(alpha.water) = 0.98737822887384
MULES: Correcting alpha.water
MULES: Correcting alpha.water
Phase-1 volume fraction = 0.012968910267778  Min(alpha.water) = -1.7122502122564e-62  Max(alpha.water) = 0.98793583103077
ExecutionTime = 2.27 s  ClockTime = 2 s

Courant Number mean: 0.37499999999998 max: 0.37500000000001
Interface Courant Number mean: 0.0082499999999994 max: 0.375
deltaT = 0.0125
Time = 4

smoothSolver:  Solving for alpha.water, Initial residual = 0.019418782426843, Final residual = 1.6615392634273e-17, No Iterations 1
Phase-1 volume fraction = 0.012968910267778  Min(alpha.water) = -8.8101848070329e-96  Max(alpha.water) = 0.98723888363552
MULES: Correcting alpha.water
MULES: Correcting alpha.water
Phase-1 volume fraction = 0.012968910267778  Min(alpha.water) = -1.8105291797285e-62  Max(alpha.water) = 0.98796277358
ExecutionTime = 2.29 s  ClockTime = 2 s

End

