/*---------------------------------------------------------------------------*\
  =========                 |
  \\      /  F ield         | OpenFOAM: The Open Source CFD Toolbox
   \\    /   O peration     | Website:  https://openfoam.org
    \\  /    A nd           | Version:  7
     \\/     M anipulation  |
\*---------------------------------------------------------------------------*/
Build  : 7-1ff648926f77
Exec   : blockMesh
Date   : Jun 21 2021
Time   : 15:51:22
Host   : "ubuntu"
PID    : 7621
I/O    : uncollated
Case   : /home/user/Desktop/OFSolvers/isoAdvector/baseCase
nProcs : 1
sigFpe : Enabling floating point exception trapping (FOAM_SIGFPE).
fileModificationChecking : Monitoring run-time modified files using timeStampMaster (fileModificationSkew 10)
allowSystemOperations : Allowing user-supplied system call operations

// * * * * * * * * * * * * * * * * * * * * * * * * * * * * * * * * * * * * * //
Create time

--> FOAM Warning : 
    From function void* Foam::dlOpen(const Foam::fileName&, bool)
    in file POSIX.C at line 1251
    dlopen error : libVOFInterpolationSchemes.so: cannot open shared object file: No such file or directory
--> FOAM Warning : 
    From function bool Foam::dlLibraryTable::open(const Foam::fileName&, bool)
    in file db/dynamicLibrary/dlLibraryTable/dlLibraryTable.C at line 105
    could not load "libVOFInterpolationSchemes.so"
Not deleting polyMesh directory 
    "/home/user/Desktop/OFSolvers/isoAdvector/baseCase/constant/polyMesh"
    because it contains blockMeshDict
Creating block mesh from
    "/home/user/Desktop/OFSolvers/isoAdvector/baseCase/constant/polyMesh/blockMeshDict"
Creating block edges
No non-planar block faces defined
Creating topology blocks
Creating topology patches

Creating block mesh topology

Check topology

	Basic statistics
		Number of internal faces : 0
		Number of boundary faces : 6
		Number of defined boundary faces : 6
		Number of undefined boundary faces : 0
	Checking patch -> block consistency

Creating block offsets
Creating merge list .

Creating polyMesh from blockMesh
Creating patches
Creating cells
Creating points with scale 1
    Block 0 cell size :
        i : 0.05 .. 0.05
        j : 0.1
        k : 0.05 .. 0.05

Writing polyMesh
----------------
Mesh Information
----------------
  boundingBox: (0 -0.05 0) (5 0.05 3)
  nPoints: 12322
  nCells: 6000
  nFaces: 24160
  nInternalFaces: 11840
----------------
Patches
----------------
  patch 0 (start: 11840 size: 320) name: rim
  patch 1 (start: 12160 size: 6000) name: front
  patch 2 (start: 18160 size: 6000) name: back

End

