/*---------------------------------------------------------------------------*\
  =========                 |
  \\      /  F ield         | OpenFOAM: The Open Source CFD Toolbox
   \\    /   O peration     | Website:  https://openfoam.org
    \\  /    A nd           | Version:  7
     \\/     M anipulation  |
\*---------------------------------------------------------------------------*/
Build  : 7-1ff648926f77
Exec   : interFlow
Date   : Jun 21 2021
Time   : 15:51:22
Host   : "ubuntu"
PID    : 7624
I/O    : uncollated
Case   : /home/user/Desktop/OFSolvers/isoAdvector/baseCase
nProcs : 1
sigFpe : Enabling floating point exception trapping (FOAM_SIGFPE).
fileModificationChecking : Monitoring run-time modified files using timeStampMaster (fileModificationSkew 10)
allowSystemOperations : Allowing user-supplied system call operations

// * * * * * * * * * * * * * * * * * * * * * * * * * * * * * * * * * * * * * //
Create time

--> FOAM Warning : 
    From function void* Foam::dlOpen(const Foam::fileName&, bool)
    in file POSIX.C at line 1251
    dlopen error : libVOFInterpolationSchemes.so: cannot open shared object file: No such file or directory
--> FOAM Warning : 
    From function bool Foam::dlLibraryTable::open(const Foam::fileName&, bool)
    in file db/dynamicLibrary/dlLibraryTable/dlLibraryTable.C at line 105
    could not load "libVOFInterpolationSchemes.so"
Create mesh for time = 0


PIMPLE: No convergence criteria found


PIMPLE: Operating solver in transient mode with 1 outer corrector
PIMPLE: Operating solver in PISO mode


Reading field p_rgh

Reading field U

Reading/calculating face flux field phi

Reading transportProperties

Selecting incompressible transport model Newtonian
Selecting incompressible transport model Newtonian
Selecting turbulence model type laminar
Selecting laminar stress model Stokes

Reading g

Reading hRef
Calculating field g.h

No MRF models present

No finite volume options present
time step continuity errors : sum local = 1.4207385268249e-18, global = -9.0147796634922e-19, cumulative = -9.0147796634922e-19
Courant Number mean: 0.029999999999999 max: 0.030000000000001

Starting time loop

Courant Number mean: 0.029999999999999 max: 0.030000000000001
Interface Courant Number mean: 0.00013999999999999 max: 0.03
deltaT = 0.0011904761904762
Time = 0.00119048

Number of isoAdvector surface cells = 28
isoAdvection: Before conservative bounding: min(alpha) = 0, max(alpha) = 1 + 0
isoAdvection: After conservative bounding: min(alpha) = 0, max(alpha) = 1 + 0
isoAdvection: time consumption = 24%
Phase-1 volume fraction = 0.012968910267778  Min(alpha.water) = 0  1 - Max(alpha.water) = 0
ExecutionTime = 0.05 s  ClockTime = 0 s

Courant Number mean: 0.035714285714284 max: 0.035714285714286
Interface Courant Number mean: 0.00016666666666665 max: 0.035714285714286
deltaT = 0.0014115646258503
Time = 0.00260204

Number of isoAdvector surface cells = 40
isoAdvection: Before conservative bounding: min(alpha) = 0, max(alpha) = 1 + 0
isoAdvection: After conservative bounding: min(alpha) = 0, max(alpha) = 1 + 0
isoAdvection: time consumption = 19%
Phase-1 volume fraction = 0.012968910267778  Min(alpha.water) = 0  1 - Max(alpha.water) = 0
ExecutionTime = 0.05 s  ClockTime = 0 s

Courant Number mean: 0.042346938775509 max: 0.042346938775511
Interface Courant Number mean: 0.00021173469387754 max: 0.04234693877551
deltaT = 0.0016792751583392
Time = 0.00428132

Number of isoAdvector surface cells = 40
isoAdvection: Before conservative bounding: min(alpha) = 0, max(alpha) = 1 + 2.4428407125798e-05
isoAdvection: After conservative bounding: min(alpha) = 0, max(alpha) = 1 + 0
isoAdvection: time consumption = 19%
Phase-1 volume fraction = 0.012968910267778  Min(alpha.water) = 0  1 - Max(alpha.water) = 0
ExecutionTime = 0.05 s  ClockTime = 0 s

Courant Number mean: 0.050378254750174 max: 0.050378254750177
Interface Courant Number mean: 0.00026028764954256 max: 0.050378254750176
deltaT = 0.0019941392505278
Time = 0.00627546

Number of isoAdvector surface cells = 39
isoAdvection: Before conservative bounding: min(alpha) = 0, max(alpha) = 1 + 4.674053897169e-05
isoAdvection: After conservative bounding: min(alpha) = 0, max(alpha) = 1 + 0
isoAdvection: time consumption = 19%
Phase-1 volume fraction = 0.012968910267778  Min(alpha.water) = 0  1 - Max(alpha.water) = 0
ExecutionTime = 0.06 s  ClockTime = 0 s

Courant Number mean: 0.059824177515832 max: 0.059824177515835
Interface Courant Number mean: 0.00032903297633706 max: 0.059824177515834
deltaT = 0.0023431136193702
Time = 0.00861857

Number of isoAdvector surface cells = 40
isoAdvection: Before conservative bounding: min(alpha) = 0, max(alpha) = 1 + 1.56588741973e-10
isoAdvection: After conservative bounding: min(alpha) = 0, max(alpha) = 1 + 0
isoAdvection: time consumption = 16%
Phase-1 volume fraction = 0.012968910267778  Min(alpha.water) = 0  1 - Max(alpha.water) = 0
ExecutionTime = 0.06 s  ClockTime = 0 s

Courant Number mean: 0.070293408581102 max: 0.070293408581106
Interface Courant Number mean: 0.0003983293152929 max: 0.070293408581105
deltaT = 0.0027691342774375
Time = 0.0113877

Number of isoAdvector surface cells = 40
isoAdvection: Before conservative bounding: min(alpha) = 0, max(alpha) = 1 + 0
isoAdvection: After conservative bounding: min(alpha) = 0, max(alpha) = 1 + 0
isoAdvection: time consumption = 16%
Phase-1 volume fraction = 0.012968910267778  Min(alpha.water) = 0  1 - Max(alpha.water) = 0
ExecutionTime = 0.06 s  ClockTime = 0 s

Courant Number mean: 0.083074028323121 max: 0.083074028323125
Interface Courant Number mean: 0.00048459849855152 max: 0.083074028323124
deltaT = 0.0032819369214074
Time = 0.0146696

Number of isoAdvector surface cells = 40
isoAdvection: Before conservative bounding: min(alpha) = 0, max(alpha) = 1 + 0
isoAdvection: After conservative bounding: min(alpha) = 0, max(alpha) = 1 + 0
isoAdvection: time consumption = 16%
Phase-1 volume fraction = 0.012968910267778  Min(alpha.water) = 0  1 - Max(alpha.water) = 0
ExecutionTime = 0.06 s  ClockTime = 0 s

Courant Number mean: 0.098458107642217 max: 0.098458107642223
Interface Courant Number mean: 0.00059074864585328 max: 0.098458107642221
deltaT = 0.0038786527252996
Time = 0.0185483

Number of isoAdvector surface cells = 40
isoAdvection: Before conservative bounding: min(alpha) = 0, max(alpha) = 1 + 4.8435806476732e-09
isoAdvection: After conservative bounding: min(alpha) = 0, max(alpha) = 1 + 0
isoAdvection: time consumption = 28%
Phase-1 volume fraction = 0.012968910267778  Min(alpha.water) = 0  1 - Max(alpha.water) = 0
ExecutionTime = 0.07 s  ClockTime = 0 s

Courant Number mean: 0.11635958175898 max: 0.11635958175899
Interface Courant Number mean: 0.00071755075418038 max: 0.11635958175899
deltaT = 0.0045250948461829
Time = 0.0230734

Number of isoAdvector surface cells = 40
isoAdvection: Before conservative bounding: min(alpha) = 0, max(alpha) = 1 + 0.00024645501633325
isoAdvection: After conservative bounding: min(alpha) = 0, max(alpha) = 1 + 0
isoAdvection: time consumption = 28%
Phase-1 volume fraction = 0.012968910267778  Min(alpha.water) = 0  1 - Max(alpha.water) = 0
ExecutionTime = 0.07 s  ClockTime = 0 s

Courant Number mean: 0.13575284538548 max: 0.13575284538549
Interface Courant Number mean: 0.00076926612385104 max: 0.13575284538549
deltaT = 0.0051284408256739
Time = 0.0282018

Number of isoAdvector surface cells = 40
isoAdvection: Before conservative bounding: min(alpha) = -2.7247271891852e-09, max(alpha) = 1 + 3.9972309906489e-09
isoAdvection: After conservative bounding: min(alpha) = -1.0408340855861e-16, max(alpha) = 1 + 0
isoAdvection: time consumption = 28%
Phase-1 volume fraction = 0.012968910267778  Min(alpha.water) = -1.0408340855861e-16  1 - Max(alpha.water) = 0
ExecutionTime = 0.07 s  ClockTime = 0 s

Courant Number mean: 0.15385322477021 max: 0.15385322477022
Interface Courant Number mean: 0.00089747714449287 max: 0.15385322477022
deltaT = 0.0059831809632863
Time = 0.034185

Number of isoAdvector surface cells = 41
isoAdvection: Before conservative bounding: min(alpha) = -3.663735981263e-15, max(alpha) = 1 + 7.0011227773836e-05
isoAdvection: After conservative bounding: min(alpha) = -3.663735981263e-15, max(alpha) = 1 + 0
isoAdvection: time consumption = 37%
Phase-1 volume fraction = 0.012968910267778  Min(alpha.water) = -3.663735981263e-15  1 - Max(alpha.water) = 0
ExecutionTime = 0.08 s  ClockTime = 0 s

Courant Number mean: 0.17949542889858 max: 0.17949542889859
Interface Courant Number mean: 0.0010171407637586 max: 0.17949542889859
deltaT = 0.0065814990596149
Time = 0.0407665

Number of isoAdvector surface cells = 39
isoAdvection: Before conservative bounding: min(alpha) = -0.00071276237232361, max(alpha) = 1 + 9.0047969081297e-12
isoAdvection: After conservative bounding: min(alpha) = -2.9403497338022e-15, max(alpha) = 1 + 0
isoAdvection: time consumption = 37%
Phase-1 volume fraction = 0.012968910267778  Min(alpha.water) = -2.9403497338022e-15  1 - Max(alpha.water) = 0
ExecutionTime = 0.08 s  ClockTime = 0 s

Courant Number mean: 0.19744497178844 max: 0.19744497178845
Interface Courant Number mean: 0.0011846698307306 max: 0.19744497178845
deltaT = 0.0074041864420667
Time = 0.0481707

Number of isoAdvector surface cells = 40
isoAdvection: Before conservative bounding: min(alpha) = -2.2868360216075e-15, max(alpha) = 1 + 4.5075054799781e-14
isoAdvection: After conservative bounding: min(alpha) = -2.2868360216075e-15, max(alpha) = 1 + 4.5075054799781e-14
isoAdvection: time consumption = 37%
Phase-1 volume fraction = 0.012968910267778  Min(alpha.water) = -2.2868360216075e-15  1 - Max(alpha.water) = -4.5075054799781e-14
ExecutionTime = 0.08 s  ClockTime = 0 s

Courant Number mean: 0.22212559326199 max: 0.22212559326201
Interface Courant Number mean: 0.0012587116951513 max: 0.222125593262
deltaT = 0.0086382175157445
Time = 0.0568089

Number of isoAdvector surface cells = 40
isoAdvection: Before conservative bounding: min(alpha) = -3.9094852926589e-05, max(alpha) = 1 + 1.2547189149226e-05
isoAdvection: After conservative bounding: min(alpha) = -1.6958308274818e-15, max(alpha) = 1 + 0
isoAdvection: time consumption = 44%
Phase-1 volume fraction = 0.012968910267778  Min(alpha.water) = -1.6958308274818e-15  1 - Max(alpha.water) = 0
ExecutionTime = 0.09 s  ClockTime = 0 s

Courant Number mean: 0.25914652547233 max: 0.25914652547234
Interface Courant Number mean: 0.0015980702404126 max: 0.25914652547234
deltaT = 0.0086382175157445
Time = 0.0654471

Number of isoAdvector surface cells = 40
isoAdvection: Before conservative bounding: min(alpha) = -3.4877593313443e-09, max(alpha) = 1 + 1.1564313950885e-09
isoAdvection: After conservative bounding: min(alpha) = -1.2567727091277e-15, max(alpha) = 1 + 0
isoAdvection: time consumption = 44%
Phase-1 volume fraction = 0.012968910267778  Min(alpha.water) = -1.2567727091277e-15  1 - Max(alpha.water) = 0
ExecutionTime = 0.09 s  ClockTime = 0 s

Courant Number mean: 0.25914652547233 max: 0.25914652547234
Interface Courant Number mean: 0.0014684969776765 max: 0.25914652547234
deltaT = 0.0086382175157445
Time = 0.0740853

Number of isoAdvector surface cells = 42
isoAdvection: Before conservative bounding: min(alpha) = -0.0023179591186628, max(alpha) = 1 + 6.934058778385e-05
isoAdvection: After conservative bounding: min(alpha) = -9.3108315943922e-16, max(alpha) = 1 + 0
isoAdvection: time consumption = 44%
Phase-1 volume fraction = 0.012968910267778  Min(alpha.water) = -9.3108315943922e-16  1 - Max(alpha.water) = 0
ExecutionTime = 0.09 s  ClockTime = 0 s

Courant Number mean: 0.25914652547233 max: 0.25914652547234
Interface Courant Number mean: 0.0014684969776765 max: 0.25914652547234
deltaT = 0.0086382175157445
Time = 0.0827236

Number of isoAdvector surface cells = 39
isoAdvection: Before conservative bounding: min(alpha) = -1.2184702109726e-09, max(alpha) = 1 + 1.8918422384218e-11
isoAdvection: After conservative bounding: min(alpha) = -6.8979619374474e-16, max(alpha) = 1 + 0
isoAdvection: time consumption = 49%
Phase-1 volume fraction = 0.012968910267778  Min(alpha.water) = -6.8979619374474e-16  1 - Max(alpha.water) = 0
ExecutionTime = 0.1 s  ClockTime = 0 s

Courant Number mean: 0.25914652547233 max: 0.25914652547234
Interface Courant Number mean: 0.0015980702404126 max: 0.25914652547234
deltaT = 0.0086382175157445
Time = 0.0913618

Number of isoAdvector surface cells = 40
isoAdvection: Before conservative bounding: min(alpha) = -0.0030286980663523, max(alpha) = 1 + 0
isoAdvection: After conservative bounding: min(alpha) = -5.1103790685175e-16, max(alpha) = 1 + 0
isoAdvection: time consumption = 49%
Phase-1 volume fraction = 0.012968910267778  Min(alpha.water) = -5.1103790685175e-16  1 - Max(alpha.water) = 0
ExecutionTime = 0.1 s  ClockTime = 0 s

Courant Number mean: 0.25914652547233 max: 0.25914652547234
Interface Courant Number mean: 0.0015116880652552 max: 0.25914652547234
deltaT = 0.0086382175157445
Time = 0.1

Number of isoAdvector surface cells = 40
isoAdvection: Before conservative bounding: min(alpha) = -0.0012224737577317, max(alpha) = 1 + 7.2747184126198e-05
isoAdvection: After conservative bounding: min(alpha) = -3.7860420890646e-16, max(alpha) = 1 + 0
isoAdvection: time consumption = 49%
Phase-1 volume fraction = 0.012968910267778  Min(alpha.water) = -3.7860420890646e-16  1 - Max(alpha.water) = 0
ExecutionTime = 0.12 s  ClockTime = 0 s

Courant Number mean: 0.25914652547233 max: 0.25914652547234
Interface Courant Number mean: 0.0012093504522041 max: 0.25914652547234
deltaT = 0.01
Time = 0.11

Number of isoAdvector surface cells = 40
isoAdvection: Before conservative bounding: min(alpha) = -8.9950791345197e-09, max(alpha) = 1 + 0.00035662441507966
isoAdvection: After conservative bounding: min(alpha) = -2.9973703581905e-16, max(alpha) = 1 + 0
isoAdvection: time consumption = 41%
Phase-1 volume fraction = 0.012968910267778  Min(alpha.water) = -2.9973703581905e-16  1 - Max(alpha.water) = 0
ExecutionTime = 0.12 s  ClockTime = 0 s

Courant Number mean: 0.29999999999999 max: 0.30000000000001
Interface Courant Number mean: 0.0017999999999999 max: 0.3
deltaT = 0.01125
Time = 0.12125

Number of isoAdvector surface cells = 42
isoAdvection: Before conservative bounding: min(alpha) = -1.0047413551977e-07, max(alpha) = 1 + 0.0003013590119858
isoAdvection: After conservative bounding: min(alpha) = -2.5887805346092e-16, max(alpha) = 1 + 0
isoAdvection: time consumption = 41%
Phase-1 volume fraction = 0.012968910267778  Min(alpha.water) = -2.5887805346092e-16  1 - Max(alpha.water) = 0
ExecutionTime = 0.12 s  ClockTime = 0 s

Courant Number mean: 0.33749999999999 max: 0.33750000000001
Interface Courant Number mean: 0.0019124999999999 max: 0.3375
deltaT = 0.01125
Time = 0.1325

Number of isoAdvector surface cells = 40
isoAdvection: Before conservative bounding: min(alpha) = -9.3662617210721e-09, max(alpha) = 1 + 0.002001742168916
isoAdvection: After conservative bounding: min(alpha) = -2.1145696245827e-16, max(alpha) = 1 + 0
isoAdvection: time consumption = 41%
Phase-1 volume fraction = 0.012968910267778  Min(alpha.water) = -2.1145696245827e-16  1 - Max(alpha.water) = 0
ExecutionTime = 0.13 s  ClockTime = 0 s

Courant Number mean: 0.33749999999999 max: 0.33750000000001
Interface Courant Number mean: 0.0018562499999999 max: 0.3375
deltaT = 0.01125
Time = 0.14375

Number of isoAdvector surface cells = 41
isoAdvection: Before conservative bounding: min(alpha) = -0.0012626433861858, max(alpha) = 1 + 0.00023069015854693
isoAdvection: After conservative bounding: min(alpha) = -1.6655727960537e-16, max(alpha) = 1 + 2.2204460492503e-16
isoAdvection: time consumption = 38%
Phase-1 volume fraction = 0.012968910267778  Min(alpha.water) = -1.6655727960537e-16  1 - Max(alpha.water) = -2.2204460492503e-16
ExecutionTime = 0.13 s  ClockTime = 0 s

Courant Number mean: 0.33749999999999 max: 0.33750000000001
Interface Courant Number mean: 0.0020812499999999 max: 0.3375
deltaT = 0.01125
Time = 0.155

Number of isoAdvector surface cells = 41
isoAdvection: Before conservative bounding: min(alpha) = -0.00087897468544761, max(alpha) = 1 + 0.00036588012537098
isoAdvection: After conservative bounding: min(alpha) = -1.2787861304817e-16, max(alpha) = 1 + 0
isoAdvection: time consumption = 38%
Phase-1 volume fraction = 0.012968910267778  Min(alpha.water) = -1.2787861304817e-16  1 - Max(alpha.water) = 0
ExecutionTime = 0.13 s  ClockTime = 0 s

Courant Number mean: 0.33749999999999 max: 0.33750000000001
Interface Courant Number mean: 0.0020812499999999 max: 0.3375
deltaT = 0.01125
Time = 0.16625

Number of isoAdvector surface cells = 40
isoAdvection: Before conservative bounding: min(alpha) = -0.00044425185803364, max(alpha) = 1 + 1.0534548788854e-09
isoAdvection: After conservative bounding: min(alpha) = -1.4432899320127e-15, max(alpha) = 1 + 0
isoAdvection: time consumption = 38%
Phase-1 volume fraction = 0.012968910267778  Min(alpha.water) = -1.4432899320127e-15  1 - Max(alpha.water) = 0
ExecutionTime = 0.14 s  ClockTime = 0 s

Courant Number mean: 0.33749999999999 max: 0.33750000000001
Interface Courant Number mean: 0.0018562499999999 max: 0.3375
deltaT = 0.01125
Time = 0.1775

Number of isoAdvector surface cells = 39
isoAdvection: Before conservative bounding: min(alpha) = -0.0018778802890665, max(alpha) = 1 + 0.00021576053099448
isoAdvection: After conservative bounding: min(alpha) = -9.8428614851557e-16, max(alpha) = 1 + 0
isoAdvection: time consumption = 35%
Phase-1 volume fraction = 0.012968910267778  Min(alpha.water) = -9.8428614851557e-16  1 - Max(alpha.water) = 0
ExecutionTime = 0.14 s  ClockTime = 0 s

Courant Number mean: 0.33749999999999 max: 0.33750000000001
Interface Courant Number mean: 0.0020249999999999 max: 0.3375
deltaT = 0.01125
Time = 0.18875

Number of isoAdvector surface cells = 42
isoAdvection: Before conservative bounding: min(alpha) = -0.0097588395560992, max(alpha) = 1 + 3.9107139748751e-10
isoAdvection: After conservative bounding: min(alpha) = -6.8617433459228e-16, max(alpha) = 1 + 0
isoAdvection: time consumption = 35%
Phase-1 volume fraction = 0.012968910267778  Min(alpha.water) = -6.8617433459228e-16  1 - Max(alpha.water) = 0
ExecutionTime = 0.14 s  ClockTime = 0 s

Courant Number mean: 0.33749999999999 max: 0.33750000000001
Interface Courant Number mean: 0.0019687499999999 max: 0.3375
deltaT = 0.01125
Time = 0.2

Number of isoAdvector surface cells = 40
isoAdvection: Before conservative bounding: min(alpha) = -0.0018509846866303, max(alpha) = 1 + 0.00014432502625916
isoAdvection: After conservative bounding: min(alpha) = -4.8356563312543e-16, max(alpha) = 1 + 0
isoAdvection: time consumption = 39%
Phase-1 volume fraction = 0.012968910267778  Min(alpha.water) = -4.8356563312543e-16  1 - Max(alpha.water) = 0
ExecutionTime = 0.18 s  ClockTime = 0 s

Courant Number mean: 0.33749999999999 max: 0.33750000000001
Interface Courant Number mean: 0.0015749999999999 max: 0.3375
deltaT = 0.0125
Time = 0.2125

Number of isoAdvector surface cells = 40
isoAdvection: Before conservative bounding: min(alpha) = -0.0010786539282106, max(alpha) = 1 + 0.00063576138680399
isoAdvection: After conservative bounding: min(alpha) = -3.325410115598e-16, max(alpha) = 1 + 0
isoAdvection: time consumption = 33%
Phase-1 volume fraction = 0.012968910267778  Min(alpha.water) = -3.325410115598e-16  1 - Max(alpha.water) = 0
ExecutionTime = 0.18 s  ClockTime = 0 s

Courant Number mean: 0.37499999999999 max: 0.37500000000001
Interface Courant Number mean: 0.0023749999999998 max: 0.375
deltaT = 0.0125
Time = 0.225

Number of isoAdvector surface cells = 40
isoAdvection: Before conservative bounding: min(alpha) = -6.7443932383338e-11, max(alpha) = 1 + 0.00072576595684892
isoAdvection: After conservative bounding: min(alpha) = -2.3470485663702e-16, max(alpha) = 1 + 0
isoAdvection: time consumption = 33%
Phase-1 volume fraction = 0.012968910267778  Min(alpha.water) = -2.3470485663702e-16  1 - Max(alpha.water) = 0
ExecutionTime = 0.18 s  ClockTime = 0 s

Courant Number mean: 0.37499999999999 max: 0.37500000000001
Interface Courant Number mean: 0.0021249999999998 max: 0.375
deltaT = 0.0125
Time = 0.2375

Number of isoAdvector surface cells = 41
isoAdvection: Before conservative bounding: min(alpha) = -0.0041616797962229, max(alpha) = 1 + 0.0002396278993082
isoAdvection: After conservative bounding: min(alpha) = -1.6960523146543e-16, max(alpha) = 1 + 2.2204460492503e-16
isoAdvection: time consumption = 33%
Phase-1 volume fraction = 0.012968910267778  Min(alpha.water) = -1.6960523146543e-16  1 - Max(alpha.water) = -2.2204460492503e-16
ExecutionTime = 0.19 s  ClockTime = 0 s

Courant Number mean: 0.37499999999999 max: 0.37500000000001
Interface Courant Number mean: 0.0021249999999998 max: 0.375
deltaT = 0.0125
Time = 0.25

Number of isoAdvector surface cells = 41
isoAdvection: Before conservative bounding: min(alpha) = -0.0024310608628525, max(alpha) = 1 + 2.5990165575251e-10
isoAdvection: After conservative bounding: min(alpha) = -1.3814354768115e-16, max(alpha) = 1 + 2.2204460492503e-16
isoAdvection: time consumption = 31%
Phase-1 volume fraction = 0.012968910267778  Min(alpha.water) = -1.3814354768115e-16  1 - Max(alpha.water) = -2.2204460492503e-16
ExecutionTime = 0.19 s  ClockTime = 0 s

Courant Number mean: 0.37499999999999 max: 0.37500000000001
Interface Courant Number mean: 0.0021249999999998 max: 0.375
deltaT = 0.0125
Time = 0.2625

Number of isoAdvector surface cells = 38
isoAdvection: Before conservative bounding: min(alpha) = -3.1210659057201e-10, max(alpha) = 1 + 0.00011039231705823
isoAdvection: After conservative bounding: min(alpha) = -1.2135409656878e-16, max(alpha) = 1 + 0
isoAdvection: time consumption = 31%
Phase-1 volume fraction = 0.012968910267778  Min(alpha.water) = -1.2135409656878e-16  1 - Max(alpha.water) = 0
ExecutionTime = 0.19 s  ClockTime = 0 s

Courant Number mean: 0.37499999999999 max: 0.37500000000001
Interface Courant Number mean: 0.0020624999999999 max: 0.375
deltaT = 0.0125
Time = 0.275

Number of isoAdvector surface cells = 41
isoAdvection: Before conservative bounding: min(alpha) = -0.0052154114953816, max(alpha) = 1 + 0.00041559746458009
isoAdvection: After conservative bounding: min(alpha) = -2.2204460492503e-16, max(alpha) = 1 + 2.2204460492503e-16
isoAdvection: time consumption = 31%
Phase-1 volume fraction = 0.012968910267778  Min(alpha.water) = -2.2204460492503e-16  1 - Max(alpha.water) = -2.2204460492503e-16
ExecutionTime = 0.2 s  ClockTime = 0 s

Courant Number mean: 0.37499999999999 max: 0.37500000000001
Interface Courant Number mean: 0.0021249999999998 max: 0.375
deltaT = 0.0125
Time = 0.2875

Number of isoAdvector surface cells = 39
isoAdvection: Before conservative bounding: min(alpha) = -6.6316188478133e-09, max(alpha) = 1 + 5.0062216594426e-09
isoAdvection: After conservative bounding: min(alpha) = -1.5511063371569e-16, max(alpha) = 1 + 0
isoAdvection: time consumption = 29%
Phase-1 volume fraction = 0.012968910267778  Min(alpha.water) = -1.5511063371569e-16  1 - Max(alpha.water) = 0
ExecutionTime = 0.2 s  ClockTime = 0 s

Courant Number mean: 0.37499999999999 max: 0.37500000000001
Interface Courant Number mean: 0.0022499999999998 max: 0.375
deltaT = 0.0125
Time = 0.3

Number of isoAdvector surface cells = 42
isoAdvection: Before conservative bounding: min(alpha) = -0.007159961031145, max(alpha) = 1 + 0
isoAdvection: After conservative bounding: min(alpha) = -1.4571677198205e-16, max(alpha) = 1 + 0
isoAdvection: time consumption = 29%
Phase-1 volume fraction = 0.012968910267778  Min(alpha.water) = -1.4571677198205e-16  1 - Max(alpha.water) = 0
ExecutionTime = 0.22 s  ClockTime = 0 s

Courant Number mean: 0.37499999999998 max: 0.37500000000001
Interface Courant Number mean: 0.0017499999999999 max: 0.375
deltaT = 0.0125
Time = 0.3125

Number of isoAdvector surface cells = 40
isoAdvection: Before conservative bounding: min(alpha) = -1.054262357311e-16, max(alpha) = 1 + 0.00068512027235812
isoAdvection: After conservative bounding: min(alpha) = -1.054262357311e-16, max(alpha) = 1 + 0
isoAdvection: time consumption = 27%
Phase-1 volume fraction = 0.012968910267778  Min(alpha.water) = -1.054262357311e-16  1 - Max(alpha.water) = 0
ExecutionTime = 0.22 s  ClockTime = 0 s

Courant Number mean: 0.37499999999999 max: 0.37500000000001
Interface Courant Number mean: 0.0023124999999998 max: 0.375
deltaT = 0.0125
Time = 0.325

Number of isoAdvector surface cells = 40
isoAdvection: Before conservative bounding: min(alpha) = -1.8219609848602e-10, max(alpha) = 1 + 0.00151597955211
isoAdvection: After conservative bounding: min(alpha) = -6.8501044804904e-17, max(alpha) = 1 + 0
isoAdvection: time consumption = 27%
Phase-1 volume fraction = 0.012968910267778  Min(alpha.water) = -6.8501044804904e-17  1 - Max(alpha.water) = 0
ExecutionTime = 0.22 s  ClockTime = 0 s

Courant Number mean: 0.37499999999999 max: 0.37500000000001
Interface Courant Number mean: 0.0021249999999998 max: 0.375
deltaT = 0.0125
Time = 0.3375

Number of isoAdvector surface cells = 40
isoAdvection: Before conservative bounding: min(alpha) = -0.0040953701485885, max(alpha) = 1 + 0.0004639252467058
isoAdvection: After conservative bounding: min(alpha) = -1.3183898417424e-16, max(alpha) = 1 + 0
isoAdvection: time consumption = 30%
Phase-1 volume fraction = 0.012968910267778  Min(alpha.water) = -1.3183898417424e-16  1 - Max(alpha.water) = 0
ExecutionTime = 0.23 s  ClockTime = 0 s

Courant Number mean: 0.37499999999999 max: 0.37500000000001
Interface Courant Number mean: 0.0021249999999998 max: 0.375
deltaT = 0.0125
Time = 0.35

Number of isoAdvector surface cells = 41
isoAdvection: Before conservative bounding: min(alpha) = -0.0024488075472352, max(alpha) = 1 + 5.9946050345872e-09
isoAdvection: After conservative bounding: min(alpha) = -1.6653345369377e-16, max(alpha) = 1 + 0
isoAdvection: time consumption = 30%
Phase-1 volume fraction = 0.012968910267778  Min(alpha.water) = -1.6653345369377e-16  1 - Max(alpha.water) = 0
ExecutionTime = 0.23 s  ClockTime = 0 s

Courant Number mean: 0.37499999999999 max: 0.37500000000001
Interface Courant Number mean: 0.0021874999999998 max: 0.375
deltaT = 0.0125
Time = 0.3625

Number of isoAdvector surface cells = 38
isoAdvection: Before conservative bounding: min(alpha) = -7.281890715416e-10, max(alpha) = 1 + 0.00012062509523525
isoAdvection: After conservative bounding: min(alpha) = -1.1914213109535e-16, max(alpha) = 1 + -1.1102230246252e-16
isoAdvection: time consumption = 30%
Phase-1 volume fraction = 0.012968910267778  Min(alpha.water) = -1.1914213109535e-16  1 - Max(alpha.water) = 1.1102230246252e-16
ExecutionTime = 0.23 s  ClockTime = 0 s

Courant Number mean: 0.37499999999999 max: 0.37500000000001
Interface Courant Number mean: 0.0020624999999999 max: 0.375
deltaT = 0.0125
Time = 0.375

Number of isoAdvector surface cells = 41
isoAdvection: Before conservative bounding: min(alpha) = -0.0043710735695273, max(alpha) = 1 + 0.0004380272574831
isoAdvection: After conservative bounding: min(alpha) = -9.0205620750794e-17, max(alpha) = 1 + 2.2204460492503e-16
isoAdvection: time consumption = 29%
Phase-1 volume fraction = 0.012968910267778  Min(alpha.water) = -9.0205620750794e-17  1 - Max(alpha.water) = -2.2204460492503e-16
ExecutionTime = 0.24 s  ClockTime = 0 s

Courant Number mean: 0.37499999999999 max: 0.37500000000001
Interface Courant Number mean: 0.0021874999999998 max: 0.375
deltaT = 0.0125
Time = 0.3875

Number of isoAdvector surface cells = 39
isoAdvection: Before conservative bounding: min(alpha) = -1.0894063429134e-15, max(alpha) = 1 + 2.1426407315062e-09
isoAdvection: After conservative bounding: min(alpha) = -1.0894063429134e-15, max(alpha) = 1 + 0
isoAdvection: time consumption = 29%
Phase-1 volume fraction = 0.012968910267778  Min(alpha.water) = -1.0894063429134e-15  1 - Max(alpha.water) = 0
ExecutionTime = 0.24 s  ClockTime = 0 s

Courant Number mean: 0.37499999999999 max: 0.37500000000001
Interface Courant Number mean: 0.0021874999999998 max: 0.375
deltaT = 0.0125
Time = 0.4

Number of isoAdvector surface cells = 42
isoAdvection: Before conservative bounding: min(alpha) = -0.0072063225112808, max(alpha) = 1 + -2.2426505097428e-14
isoAdvection: After conservative bounding: min(alpha) = -6.8902141383932e-16, max(alpha) = 1 + -2.2426505097428e-14
isoAdvection: time consumption = 29%
Phase-1 volume fraction = 0.012968910267778  Min(alpha.water) = -6.8902141383932e-16  1 - Max(alpha.water) = 2.2426505097428e-14
ExecutionTime = 0.26 s  ClockTime = 0 s

Courant Number mean: 0.37499999999998 max: 0.37500000000001
Interface Courant Number mean: 0.0017499999999999 max: 0.375
deltaT = 0.0125
Time = 0.4125

Number of isoAdvector surface cells = 40
isoAdvection: Before conservative bounding: min(alpha) = -5.3219963719398e-06, max(alpha) = 1 + 0.00080550441393523
isoAdvection: After conservative bounding: min(alpha) = -4.4752339574162e-16, max(alpha) = 1 + 0
isoAdvection: time consumption = 26%
Phase-1 volume fraction = 0.012968910267778  Min(alpha.water) = -4.4752339574162e-16  1 - Max(alpha.water) = 0
ExecutionTime = 0.26 s  ClockTime = 0 s

Courant Number mean: 0.37499999999999 max: 0.37500000000001
Interface Courant Number mean: 0.0023124999999998 max: 0.375
deltaT = 0.0125
Time = 0.425

Number of isoAdvector surface cells = 40
isoAdvection: Before conservative bounding: min(alpha) = -4.0292849612378e-10, max(alpha) = 1 + 0.0017636192162898
isoAdvection: After conservative bounding: min(alpha) = -2.9024214041087e-16, max(alpha) = 1 + 0
isoAdvection: time consumption = 26%
Phase-1 volume fraction = 0.012968910267778  Min(alpha.water) = -2.9024214041087e-16  1 - Max(alpha.water) = 0
ExecutionTime = 0.26 s  ClockTime = 0 s

Courant Number mean: 0.37499999999999 max: 0.37500000000001
Interface Courant Number mean: 0.0021249999999998 max: 0.375
deltaT = 0.0125
Time = 0.4375

Number of isoAdvector surface cells = 40
isoAdvection: Before conservative bounding: min(alpha) = -0.0040137237915684, max(alpha) = 1 + 0.00076523917285742
isoAdvection: After conservative bounding: min(alpha) = -1.9009052047347e-16, max(alpha) = 1 + 0
isoAdvection: time consumption = 25%
Phase-1 volume fraction = 0.012968910267778  Min(alpha.water) = -1.9009052047347e-16  1 - Max(alpha.water) = 0
ExecutionTime = 0.27 s  ClockTime = 0 s

Courant Number mean: 0.37499999999999 max: 0.37500000000001
Interface Courant Number mean: 0.0021249999999998 max: 0.375
deltaT = 0.0125
Time = 0.45

Number of isoAdvector surface cells = 41
isoAdvection: Before conservative bounding: min(alpha) = -0.0024076665683015, max(alpha) = 1 + 2.0971844261197e-09
isoAdvection: After conservative bounding: min(alpha) = -1.2676154086137e-16, max(alpha) = 1 + 0
isoAdvection: time consumption = 25%
Phase-1 volume fraction = 0.012968910267778  Min(alpha.water) = -1.2676154086137e-16  1 - Max(alpha.water) = 0
ExecutionTime = 0.27 s  ClockTime = 0 s

Courant Number mean: 0.37499999999999 max: 0.37500000000001
Interface Courant Number mean: 0.0021874999999998 max: 0.375
deltaT = 0.0125
Time = 0.4625

Number of isoAdvector surface cells = 38
isoAdvection: Before conservative bounding: min(alpha) = -2.6807805872083e-09, max(alpha) = 1 + 9.590223771716e-05
isoAdvection: After conservative bounding: min(alpha) = -1.2181011407875e-16, max(alpha) = 1 + -1.1102230246252e-16
isoAdvection: time consumption = 25%
Phase-1 volume fraction = 0.012968910267778  Min(alpha.water) = -1.2181011407875e-16  1 - Max(alpha.water) = 1.1102230246252e-16
ExecutionTime = 0.27 s  ClockTime = 0 s

Courant Number mean: 0.37499999999999 max: 0.37500000000001
Interface Courant Number mean: 0.0020624999999999 max: 0.375
deltaT = 0.0125
Time = 0.475

Number of isoAdvector surface cells = 41
isoAdvection: Before conservative bounding: min(alpha) = -0.0038679363823333, max(alpha) = 1 + 0.00037858618468034
isoAdvection: After conservative bounding: min(alpha) = -1.3259792569498e-16, max(alpha) = 1 + 2.2204460492503e-16
isoAdvection: time consumption = 28%
Phase-1 volume fraction = 0.012968910267778  Min(alpha.water) = -1.3259792569498e-16  1 - Max(alpha.water) = -2.2204460492503e-16
ExecutionTime = 0.28 s  ClockTime = 0 s

Courant Number mean: 0.37499999999999 max: 0.37500000000001
Interface Courant Number mean: 0.0021874999999998 max: 0.375
deltaT = 0.0125
Time = 0.4875

Number of isoAdvector surface cells = 39
isoAdvection: Before conservative bounding: min(alpha) = -4.19109191796e-15, max(alpha) = 1 + 4.6633963357579e-10
isoAdvection: After conservative bounding: min(alpha) = -4.19109191796e-15, max(alpha) = 1 + 0
isoAdvection: time consumption = 28%
Phase-1 volume fraction = 0.012968910267778  Min(alpha.water) = -4.19109191796e-15  1 - Max(alpha.water) = 0
ExecutionTime = 0.28 s  ClockTime = 0 s

Courant Number mean: 0.37499999999999 max: 0.37500000000001
Interface Courant Number mean: 0.0021874999999998 max: 0.375
deltaT = 0.0125
Time = 0.5

Number of isoAdvector surface cells = 42
isoAdvection: Before conservative bounding: min(alpha) = -0.0059979825423284, max(alpha) = 1 + -4.8072656966269e-14
isoAdvection: After conservative bounding: min(alpha) = -2.6268193149369e-15, max(alpha) = 1 + -4.8072656966269e-14
isoAdvection: time consumption = 28%
Phase-1 volume fraction = 0.012968910267778  Min(alpha.water) = -2.6268193149369e-15  1 - Max(alpha.water) = 4.8072656966269e-14
ExecutionTime = 0.3 s  ClockTime = 0 s

Courant Number mean: 0.37499999999998 max: 0.37500000000001
Interface Courant Number mean: 0.0017499999999999 max: 0.375
deltaT = 0.0125
Time = 0.5125

Number of isoAdvector surface cells = 40
isoAdvection: Before conservative bounding: min(alpha) = -4.1331353242791e-05, max(alpha) = 1 + 0.0012430592577466
isoAdvection: After conservative bounding: min(alpha) = -1.662630510044e-15, max(alpha) = 1 + 0
isoAdvection: time consumption = 26%
Phase-1 volume fraction = 0.012968910267778  Min(alpha.water) = -1.662630510044e-15  1 - Max(alpha.water) = 0
ExecutionTime = 0.3 s  ClockTime = 0 s

Courant Number mean: 0.37499999999999 max: 0.37500000000001
Interface Courant Number mean: 0.0023749999999998 max: 0.375
deltaT = 0.0125
Time = 0.525

Number of isoAdvector surface cells = 40
isoAdvection: Before conservative bounding: min(alpha) = -8.2116741878524e-10, max(alpha) = 1 + 0.0019187129228189
isoAdvection: After conservative bounding: min(alpha) = -1.0549437790654e-15, max(alpha) = 1 + 0
isoAdvection: time consumption = 26%
Phase-1 volume fraction = 0.012968910267778  Min(alpha.water) = -1.0549437790654e-15  1 - Max(alpha.water) = 0
ExecutionTime = 0.31 s  ClockTime = 0 s

Courant Number mean: 0.37499999999999 max: 0.37500000000001
Interface Courant Number mean: 0.0021249999999999 max: 0.375
deltaT = 0.0125
Time = 0.5375

Number of isoAdvector surface cells = 39
isoAdvection: Before conservative bounding: min(alpha) = -0.0039563288654613, max(alpha) = 1 + 0.00095458424661654
isoAdvection: After conservative bounding: min(alpha) = -6.7473746327583e-16, max(alpha) = 1 + 0
isoAdvection: time consumption = 25%
Phase-1 volume fraction = 0.012968910267778  Min(alpha.water) = -6.7473746327583e-16  1 - Max(alpha.water) = 0
ExecutionTime = 0.31 s  ClockTime = 0 s

Courant Number mean: 0.37499999999999 max: 0.37500000000001
Interface Courant Number mean: 0.0021249999999999 max: 0.375
deltaT = 0.0125
Time = 0.55

Number of isoAdvector surface cells = 41
isoAdvection: Before conservative bounding: min(alpha) = -0.0022949214062826, max(alpha) = 1 + 6.5471161825315e-10
isoAdvection: After conservative bounding: min(alpha) = -4.3553500760647e-16, max(alpha) = 1 + 0
isoAdvection: time consumption = 25%
Phase-1 volume fraction = 0.012968910267778  Min(alpha.water) = -4.3553500760647e-16  1 - Max(alpha.water) = 0
ExecutionTime = 0.31 s  ClockTime = 0 s

Courant Number mean: 0.37499999999999 max: 0.37500000000001
Interface Courant Number mean: 0.0021874999999998 max: 0.375
deltaT = 0.0125
Time = 0.5625

Number of isoAdvector surface cells = 38
isoAdvection: Before conservative bounding: min(alpha) = -3.1722851151494e-09, max(alpha) = 1 + 9.6547417969717e-05
isoAdvection: After conservative bounding: min(alpha) = -3.3125356966702e-16, max(alpha) = 1 + 0
isoAdvection: time consumption = 25%
Phase-1 volume fraction = 0.012968910267778  Min(alpha.water) = -3.3125356966702e-16  1 - Max(alpha.water) = 0
ExecutionTime = 0.32 s  ClockTime = 0 s

Courant Number mean: 0.37499999999999 max: 0.37500000000001
Interface Courant Number mean: 0.0020624999999999 max: 0.375
deltaT = 0.0125
Time = 0.575

Number of isoAdvector surface cells = 40
isoAdvection: Before conservative bounding: min(alpha) = -0.0043395105689693, max(alpha) = 1 + 0.00034901635398277
isoAdvection: After conservative bounding: min(alpha) = -2.8063258776579e-16, max(alpha) = 1 + 0
isoAdvection: time consumption = 24%
Phase-1 volume fraction = 0.012968910267778  Min(alpha.water) = -2.8063258776579e-16  1 - Max(alpha.water) = 0
ExecutionTime = 0.32 s  ClockTime = 0 s

Courant Number mean: 0.37499999999999 max: 0.37500000000001
Interface Courant Number mean: 0.0021874999999999 max: 0.375
deltaT = 0.0125
Time = 0.5875

Number of isoAdvector surface cells = 39
isoAdvection: Before conservative bounding: min(alpha) = -1.122366088957e-14, max(alpha) = 1 + 1.0612422052247e-10
isoAdvection: After conservative bounding: min(alpha) = -1.122366088957e-14, max(alpha) = 1 + 0
isoAdvection: time consumption = 24%
Phase-1 volume fraction = 0.012968910267778  Min(alpha.water) = -1.122366088957e-14  1 - Max(alpha.water) = 0
ExecutionTime = 0.32 s  ClockTime = 0 s

Courant Number mean: 0.37499999999999 max: 0.37500000000001
Interface Courant Number mean: 0.0021874999999998 max: 0.375
deltaT = 0.0125
Time = 0.6

Number of isoAdvector surface cells = 42
isoAdvection: Before conservative bounding: min(alpha) = -0.0050442148166025, max(alpha) = 1 + -5.0515147620445e-14
isoAdvection: After conservative bounding: min(alpha) = -2.0145187010247e-16, max(alpha) = 1 + -5.0515147620445e-14
isoAdvection: time consumption = 24%
Phase-1 volume fraction = 0.012968910267778  Min(alpha.water) = -2.0145187010247e-16  1 - Max(alpha.water) = 5.0515147620445e-14
ExecutionTime = 0.34 s  ClockTime = 0 s

Courant Number mean: 0.37499999999998 max: 0.37500000000001
Interface Courant Number mean: 0.0017499999999999 max: 0.375
deltaT = 0.0125
Time = 0.6125

Number of isoAdvector surface cells = 41
isoAdvection: Before conservative bounding: min(alpha) = -0.0002100367025149, max(alpha) = 1 + 0.0011529045195178
isoAdvection: After conservative bounding: min(alpha) = -1.7845886011234e-16, max(alpha) = 1 + 2.2204460492503e-16
isoAdvection: time consumption = 23%
Phase-1 volume fraction = 0.012968910267778  Min(alpha.water) = -1.7845886011234e-16  1 - Max(alpha.water) = -2.2204460492503e-16
ExecutionTime = 0.34 s  ClockTime = 0 s

Courant Number mean: 0.37499999999999 max: 0.37500000000001
Interface Courant Number mean: 0.0023749999999998 max: 0.375
deltaT = 0.0125
Time = 0.625

Number of isoAdvector surface cells = 40
isoAdvection: Before conservative bounding: min(alpha) = -1.582869238459e-09, max(alpha) = 1 + 0.0020210177347375
isoAdvection: After conservative bounding: min(alpha) = -1.5121791466107e-16, max(alpha) = 1 + 0
isoAdvection: time consumption = 23%
Phase-1 volume fraction = 0.012968910267778  Min(alpha.water) = -1.5121791466107e-16  1 - Max(alpha.water) = 0
ExecutionTime = 0.34 s  ClockTime = 0 s

Courant Number mean: 0.37499999999999 max: 0.37500000000001
Interface Courant Number mean: 0.0021249999999998 max: 0.375
deltaT = 0.0125
Time = 0.6375

Number of isoAdvector surface cells = 39
isoAdvection: Before conservative bounding: min(alpha) = -0.0038978396407524, max(alpha) = 1 + 0.0010910584510915
isoAdvection: After conservative bounding: min(alpha) = -1.3183898417424e-16, max(alpha) = 1 + 0
isoAdvection: time consumption = 23%
Phase-1 volume fraction = 0.012968910267778  Min(alpha.water) = -1.3183898417424e-16  1 - Max(alpha.water) = 0
ExecutionTime = 0.35 s  ClockTime = 0 s

Courant Number mean: 0.37499999999999 max: 0.37500000000001
Interface Courant Number mean: 0.0021874999999998 max: 0.375
deltaT = 0.0125
Time = 0.65

Number of isoAdvector surface cells = 41
isoAdvection: Before conservative bounding: min(alpha) = -0.0021506553930782, max(alpha) = 1 + 2.4600077530579e-10
isoAdvection: After conservative bounding: min(alpha) = -1.0581813203459e-16, max(alpha) = 1 + 0
isoAdvection: time consumption = 22%
Phase-1 volume fraction = 0.012968910267778  Min(alpha.water) = -1.0581813203459e-16  1 - Max(alpha.water) = 0
ExecutionTime = 0.35 s  ClockTime = 0 s

Courant Number mean: 0.37499999999999 max: 0.37500000000001
Interface Courant Number mean: 0.0021874999999998 max: 0.375
deltaT = 0.0125
Time = 0.6625

Number of isoAdvector surface cells = 38
isoAdvection: Before conservative bounding: min(alpha) = -6.0972682111582e-09, max(alpha) = 1 + 0.00010698363673467
isoAdvection: After conservative bounding: min(alpha) = -9.1853649100871e-17, max(alpha) = 1 + 0
isoAdvection: time consumption = 22%
Phase-1 volume fraction = 0.012968910267778  Min(alpha.water) = -9.1853649100871e-17  1 - Max(alpha.water) = 0
ExecutionTime = 0.35 s  ClockTime = 0 s

Courant Number mean: 0.37499999999999 max: 0.37500000000001
Interface Courant Number mean: 0.0020624999999999 max: 0.375
deltaT = 0.0125
Time = 0.675

Number of isoAdvector surface cells = 42
isoAdvection: Before conservative bounding: min(alpha) = -0.0042096555786898, max(alpha) = 1 + 0.00031069652406468
isoAdvection: After conservative bounding: min(alpha) = -8.6320608451466e-17, max(alpha) = 1 + 0
isoAdvection: time consumption = 24%
Phase-1 volume fraction = 0.012968910267778  Min(alpha.water) = -8.6320608451466e-17  1 - Max(alpha.water) = 0
ExecutionTime = 0.36 s  ClockTime = 0 s

Courant Number mean: 0.37499999999999 max: 0.37500000000001
Interface Courant Number mean: 0.0021874999999998 max: 0.375
deltaT = 0.0125
Time = 0.6875

Number of isoAdvector surface cells = 39
isoAdvection: Before conservative bounding: min(alpha) = -2.9674179780059e-14, max(alpha) = 1 + 2.5410118453806e-11
isoAdvection: After conservative bounding: min(alpha) = -2.9674179780059e-14, max(alpha) = 1 + 0
isoAdvection: time consumption = 24%
Phase-1 volume fraction = 0.012968910267778  Min(alpha.water) = -2.9674179780059e-14  1 - Max(alpha.water) = 0
ExecutionTime = 0.36 s  ClockTime = 0 s

Courant Number mean: 0.37499999999999 max: 0.37500000000001
Interface Courant Number mean: 0.0021874999999998 max: 0.375
deltaT = 0.0125
Time = 0.7

Number of isoAdvector surface cells = 42
isoAdvection: Before conservative bounding: min(alpha) = -0.0054309354170143, max(alpha) = 1 + 3.9189385070415e-09
isoAdvection: After conservative bounding: min(alpha) = -7.4940054162198e-16, max(alpha) = 1 + 0
isoAdvection: time consumption = 24%
Phase-1 volume fraction = 0.012968910267778  Min(alpha.water) = -7.4940054162198e-16  1 - Max(alpha.water) = 0
ExecutionTime = 0.38 s  ClockTime = 0 s

Courant Number mean: 0.37499999999999 max: 0.37500000000001
Interface Courant Number mean: 0.0017499999999999 max: 0.375
deltaT = 0.0125
Time = 0.7125

Number of isoAdvector surface cells = 40
isoAdvection: Before conservative bounding: min(alpha) = -0.00042258859516396, max(alpha) = 1 + 0.0011241572558984
isoAdvection: After conservative bounding: min(alpha) = -4.4059143312173e-16, max(alpha) = 1 + 0
isoAdvection: time consumption = 23%
Phase-1 volume fraction = 0.012968910267778  Min(alpha.water) = -4.4059143312173e-16  1 - Max(alpha.water) = 0
ExecutionTime = 0.39 s  ClockTime = 0 s

Courant Number mean: 0.37499999999999 max: 0.37500000000001
Interface Courant Number mean: 0.0023749999999998 max: 0.375
deltaT = 0.0125
Time = 0.725

Number of isoAdvector surface cells = 40
isoAdvection: Before conservative bounding: min(alpha) = -2.9272049020812e-09, max(alpha) = 1 + 0.0020887224862385
isoAdvection: After conservative bounding: min(alpha) = -2.6432147540832e-16, max(alpha) = 1 + 0
isoAdvection: time consumption = 23%
Phase-1 volume fraction = 0.012968910267778  Min(alpha.water) = -2.6432147540832e-16  1 - Max(alpha.water) = 0
ExecutionTime = 0.39 s  ClockTime = 0 s

Courant Number mean: 0.37499999999999 max: 0.37500000000001
Interface Courant Number mean: 0.0021249999999998 max: 0.375
deltaT = 0.0125
Time = 0.7375

Number of isoAdvector surface cells = 40
isoAdvection: Before conservative bounding: min(alpha) = -0.0038355689987478, max(alpha) = 1 + 0.0013088625162978
isoAdvection: After conservative bounding: min(alpha) = -1.5880002048477e-16, max(alpha) = 1 + 0
isoAdvection: time consumption = 23%
Phase-1 volume fraction = 0.012968910267778  Min(alpha.water) = -1.5880002048477e-16  1 - Max(alpha.water) = 0
ExecutionTime = 0.39 s  ClockTime = 0 s

Courant Number mean: 0.37499999999999 max: 0.37500000000001
Interface Courant Number mean: 0.0021874999999998 max: 0.375
deltaT = 0.0125
Time = 0.75

Number of isoAdvector surface cells = 41
isoAdvection: Before conservative bounding: min(alpha) = -0.0019812693059876, max(alpha) = 1 + 9.1427976300906e-11
isoAdvection: After conservative bounding: min(alpha) = -9.9379448531696e-17, max(alpha) = 1 + 0
isoAdvection: time consumption = 23%
Phase-1 volume fraction = 0.012968910267778  Min(alpha.water) = -9.9379448531696e-17  1 - Max(alpha.water) = 0
ExecutionTime = 0.4 s  ClockTime = 0 s

Courant Number mean: 0.37499999999999 max: 0.37500000000001
Interface Courant Number mean: 0.0021249999999998 max: 0.375
deltaT = 0.0125
Time = 0.7625

Number of isoAdvector surface cells = 38
isoAdvection: Before conservative bounding: min(alpha) = -8.755194367141e-09, max(alpha) = 1 + 9.8361937597602e-05
isoAdvection: After conservative bounding: min(alpha) = -6.8252243980604e-17, max(alpha) = 1 + 0
isoAdvection: time consumption = 22%
Phase-1 volume fraction = 0.012968910267778  Min(alpha.water) = -6.8252243980604e-17  1 - Max(alpha.water) = 0
ExecutionTime = 0.4 s  ClockTime = 0 s

Courant Number mean: 0.37499999999999 max: 0.37500000000001
Interface Courant Number mean: 0.0020624999999999 max: 0.375
deltaT = 0.0125
Time = 0.775

Number of isoAdvector surface cells = 43
isoAdvection: Before conservative bounding: min(alpha) = -0.0040818901870042, max(alpha) = 1 + 0.00029660643383522
isoAdvection: After conservative bounding: min(alpha) = -6.2450045135165e-17, max(alpha) = 1 + 0
isoAdvection: time consumption = 22%
Phase-1 volume fraction = 0.012968910267778  Min(alpha.water) = -6.2450045135165e-17  1 - Max(alpha.water) = 0
ExecutionTime = 0.4 s  ClockTime = 0 s

Courant Number mean: 0.37499999999999 max: 0.37500000000001
Interface Courant Number mean: 0.0021874999999998 max: 0.375
deltaT = 0.0125
Time = 0.7875

Number of isoAdvector surface cells = 39
isoAdvection: Before conservative bounding: min(alpha) = -7.4603517807859e-14, max(alpha) = 1 + 5.8459903584662e-12
isoAdvection: After conservative bounding: min(alpha) = -7.4603517807859e-14, max(alpha) = 1 + -1.1102230246252e-16
isoAdvection: time consumption = 22%
Phase-1 volume fraction = 0.012968910267778  Min(alpha.water) = -7.4603517807859e-14  1 - Max(alpha.water) = 1.1102230246252e-16
ExecutionTime = 0.41 s  ClockTime = 0 s

Courant Number mean: 0.37499999999999 max: 0.37500000000001
Interface Courant Number mean: 0.0021874999999998 max: 0.375
deltaT = 0.0125
Time = 0.8

Number of isoAdvector surface cells = 42
isoAdvection: Before conservative bounding: min(alpha) = -0.0057699001931611, max(alpha) = 1 + 1.4506764678401e-09
isoAdvection: After conservative bounding: min(alpha) = -2.1371793224034e-15, max(alpha) = 1 + 0
isoAdvection: time consumption = 21%
Phase-1 volume fraction = 0.012968910267778  Min(alpha.water) = -2.1371793224034e-15  1 - Max(alpha.water) = 0
ExecutionTime = 0.42 s  ClockTime = 0 s

Courant Number mean: 0.37499999999998 max: 0.37500000000001
Interface Courant Number mean: 0.0017499999999999 max: 0.375
deltaT = 0.0125
Time = 0.8125

Number of isoAdvector surface cells = 40
isoAdvection: Before conservative bounding: min(alpha) = -0.0006130303721623, max(alpha) = 1 + 0.0011264042894155
isoAdvection: After conservative bounding: min(alpha) = -1.3333725822617e-15, max(alpha) = 1 + 0
isoAdvection: time consumption = 21%
Phase-1 volume fraction = 0.012968910267778  Min(alpha.water) = -1.3333725822617e-15  1 - Max(alpha.water) = 0
ExecutionTime = 0.43 s  ClockTime = 0 s

Courant Number mean: 0.37499999999999 max: 0.37500000000001
Interface Courant Number mean: 0.0023749999999998 max: 0.375
deltaT = 0.0125
Time = 0.825

Number of isoAdvector surface cells = 40
isoAdvection: Before conservative bounding: min(alpha) = -5.2239936057519e-09, max(alpha) = 1 + 0.0021296761318688
isoAdvection: After conservative bounding: min(alpha) = -8.3243257877024e-16, max(alpha) = 1 + 0
isoAdvection: time consumption = 20%
Phase-1 volume fraction = 0.012968910267778  Min(alpha.water) = -8.3243257877024e-16  1 - Max(alpha.water) = 0
ExecutionTime = 0.43 s  ClockTime = 0 s

Courant Number mean: 0.37499999999999 max: 0.37500000000001
Interface Courant Number mean: 0.0020624999999999 max: 0.375
deltaT = 0.0125
Time = 0.8375

Number of isoAdvector surface cells = 40
isoAdvection: Before conservative bounding: min(alpha) = -0.0037662828244654, max(alpha) = 1 + 0.0014079070898021
isoAdvection: After conservative bounding: min(alpha) = -5.2368220923953e-16, max(alpha) = 1 + 0
isoAdvection: time consumption = 20%
Phase-1 volume fraction = 0.012968910267778  Min(alpha.water) = -5.2368220923953e-16  1 - Max(alpha.water) = 0
ExecutionTime = 0.43 s  ClockTime = 0 s

Courant Number mean: 0.37499999999999 max: 0.37500000000001
Interface Courant Number mean: 0.0021874999999998 max: 0.375
deltaT = 0.0125
Time = 0.85

Number of isoAdvector surface cells = 41
isoAdvection: Before conservative bounding: min(alpha) = -0.0017913651920074, max(alpha) = 1 + 3.1658009547186e-11
isoAdvection: After conservative bounding: min(alpha) = -3.3186548692757e-16, max(alpha) = 1 + 0
isoAdvection: time consumption = 20%
Phase-1 volume fraction = 0.012968910267778  Min(alpha.water) = -3.3186548692757e-16  1 - Max(alpha.water) = 0
ExecutionTime = 0.44 s  ClockTime = 0 s

Courant Number mean: 0.37499999999999 max: 0.37500000000001
Interface Courant Number mean: 0.0021249999999999 max: 0.375
deltaT = 0.0125
Time = 0.8625

Number of isoAdvector surface cells = 37
isoAdvection: Before conservative bounding: min(alpha) = -2.4934423970002e-10, max(alpha) = 1 + 9.4416346321458e-05
isoAdvection: After conservative bounding: min(alpha) = -1.3322676295502e-15, max(alpha) = 1 + 0
isoAdvection: time consumption = 20%
Phase-1 volume fraction = 0.012968910267778  Min(alpha.water) = -1.3322676295502e-15  1 - Max(alpha.water) = 0
ExecutionTime = 0.44 s  ClockTime = 0 s

Courant Number mean: 0.37499999999999 max: 0.37500000000001
Interface Courant Number mean: 0.0020624999999999 max: 0.375
deltaT = 0.0125
Time = 0.875

Number of isoAdvector surface cells = 42
isoAdvection: Before conservative bounding: min(alpha) = -0.003788796307402, max(alpha) = 1 + 0.00027439197558854
isoAdvection: After conservative bounding: min(alpha) = -8.4389753583788e-16, max(alpha) = 1 + 2.2204460492503e-16
isoAdvection: time consumption = 20%
Phase-1 volume fraction = 0.012968910267778  Min(alpha.water) = -8.4389753583788e-16  1 - Max(alpha.water) = -2.2204460492503e-16
ExecutionTime = 0.44 s  ClockTime = 0 s

Courant Number mean: 0.37499999999999 max: 0.37500000000001
Interface Courant Number mean: 0.0021874999999998 max: 0.375
deltaT = 0.0125
Time = 0.8875

Number of isoAdvector surface cells = 39
isoAdvection: Before conservative bounding: min(alpha) = -0.00059605185556688, max(alpha) = 1 + 1.3018475186755e-12
isoAdvection: After conservative bounding: min(alpha) = -5.3979803005389e-16, max(alpha) = 1 + 0
isoAdvection: time consumption = 22%
Phase-1 volume fraction = 0.012968910267778  Min(alpha.water) = -5.3979803005389e-16  1 - Max(alpha.water) = 0
ExecutionTime = 0.45 s  ClockTime = 0 s

Courant Number mean: 0.37499999999999 max: 0.37500000000001
Interface Courant Number mean: 0.0021874999999998 max: 0.375
deltaT = 0.0125
Time = 0.9

Number of isoAdvector surface cells = 41
isoAdvection: Before conservative bounding: min(alpha) = -0.0062139532713846, max(alpha) = 1 + 4.9218273900919e-10
isoAdvection: After conservative bounding: min(alpha) = -3.4575036544254e-16, max(alpha) = 1 + -1.1102230246252e-16
isoAdvection: time consumption = 22%
Phase-1 volume fraction = 0.012968910267778  Min(alpha.water) = -3.4575036544254e-16  1 - Max(alpha.water) = 1.1102230246252e-16
ExecutionTime = 0.46 s  ClockTime = 0 s

Courant Number mean: 0.37499999999999 max: 0.37500000000001
Interface Courant Number mean: 0.0017499999999999 max: 0.375
deltaT = 0.0125
Time = 0.9125

Number of isoAdvector surface cells = 41
isoAdvection: Before conservative bounding: min(alpha) = -0.0010020554589593, max(alpha) = 1 + 0.0011498560018306
isoAdvection: After conservative bounding: min(alpha) = -2.2464658744103e-16, max(alpha) = 1 + 2.2204460492503e-16
isoAdvection: time consumption = 21%
Phase-1 volume fraction = 0.012968910267778  Min(alpha.water) = -2.2464658744103e-16  1 - Max(alpha.water) = -2.2204460492503e-16
ExecutionTime = 0.46 s  ClockTime = 0 s

Courant Number mean: 0.37499999999999 max: 0.37500000000001
Interface Courant Number mean: 0.0023749999999998 max: 0.375
deltaT = 0.0125
Time = 0.925

Number of isoAdvector surface cells = 40
isoAdvection: Before conservative bounding: min(alpha) = -9.0530173149639e-09, max(alpha) = 1 + 0.0021480606186188
isoAdvection: After conservative bounding: min(alpha) = -1.4897472938501e-16, max(alpha) = 1 + 0
isoAdvection: time consumption = 23%
Phase-1 volume fraction = 0.012968910267778  Min(alpha.water) = -1.4897472938501e-16  1 - Max(alpha.water) = 0
ExecutionTime = 0.47 s  ClockTime = 0 s

Courant Number mean: 0.37499999999999 max: 0.37500000000001
Interface Courant Number mean: 0.0020624999999999 max: 0.375
deltaT = 0.0125
Time = 0.9375

Number of isoAdvector surface cells = 40
isoAdvection: Before conservative bounding: min(alpha) = -0.0036888102415053, max(alpha) = 1 + 0.0014508774842406
isoAdvection: After conservative bounding: min(alpha) = -1.0504865492917e-16, max(alpha) = 1 + 2.2204460492503e-16
isoAdvection: time consumption = 23%
Phase-1 volume fraction = 0.012968910267778  Min(alpha.water) = -1.0504865492917e-16  1 - Max(alpha.water) = -2.2204460492503e-16
ExecutionTime = 0.47 s  ClockTime = 0 s

Courant Number mean: 0.37499999999999 max: 0.37500000000001
Interface Courant Number mean: 0.0021874999999998 max: 0.375
deltaT = 0.0125
Time = 0.95

Number of isoAdvector surface cells = 41
isoAdvection: Before conservative bounding: min(alpha) = -0.001583513012493, max(alpha) = 1 + 1.1044498648971e-11
isoAdvection: After conservative bounding: min(alpha) = -9.025449878719e-17, max(alpha) = 1 + 0
isoAdvection: time consumption = 23%
Phase-1 volume fraction = 0.012968910267778  Min(alpha.water) = -9.025449878719e-17  1 - Max(alpha.water) = 0
ExecutionTime = 0.48 s  ClockTime = 0 s

Courant Number mean: 0.37499999999999 max: 0.37500000000001
Interface Courant Number mean: 0.0021249999999998 max: 0.375
deltaT = 0.0125
Time = 0.9625

Number of isoAdvector surface cells = 38
isoAdvection: Before conservative bounding: min(alpha) = -5.2238395553683e-10, max(alpha) = 1 + 9.4052178103432e-05
isoAdvection: After conservative bounding: min(alpha) = -7.6945894872399e-17, max(alpha) = 1 + 0
isoAdvection: time consumption = 22%
Phase-1 volume fraction = 0.012968910267778  Min(alpha.water) = -7.6945894872399e-17  1 - Max(alpha.water) = 0
ExecutionTime = 0.48 s  ClockTime = 0 s

Courant Number mean: 0.37499999999999 max: 0.37500000000001
Interface Courant Number mean: 0.0020624999999999 max: 0.375
deltaT = 0.0125
Time = 0.975

Number of isoAdvector surface cells = 43
isoAdvection: Before conservative bounding: min(alpha) = -0.0034232710297699, max(alpha) = 1 + 0.00025136752407429
isoAdvection: After conservative bounding: min(alpha) = -6.3770633739516e-17, max(alpha) = 1 + 0
isoAdvection: time consumption = 22%
Phase-1 volume fraction = 0.012968910267778  Min(alpha.water) = -6.3770633739516e-17  1 - Max(alpha.water) = 0
ExecutionTime = 0.48 s  ClockTime = 0 s

Courant Number mean: 0.37499999999999 max: 0.37500000000001
Interface Courant Number mean: 0.0021874999999998 max: 0.375
deltaT = 0.0125
Time = 0.9875

Number of isoAdvector surface cells = 39
isoAdvection: Before conservative bounding: min(alpha) = -0.0012155136630515, max(alpha) = 1 + 2.8310687127941e-13
isoAdvection: After conservative bounding: min(alpha) = -5.782364067859e-17, max(alpha) = 1 + 2.8310687127941e-13
isoAdvection: time consumption = 22%
Phase-1 volume fraction = 0.012968910267778  Min(alpha.water) = -5.782364067859e-17  1 - Max(alpha.water) = -2.8310687127941e-13
ExecutionTime = 0.49 s  ClockTime = 0 s

Courant Number mean: 0.37499999999999 max: 0.37500000000001
Interface Courant Number mean: 0.0021874999999998 max: 0.375
deltaT = 0.0125
Time = 1

Number of isoAdvector surface cells = 41
isoAdvection: Before conservative bounding: min(alpha) = -0.0066733893219493, max(alpha) = 1 + 1.4938073000792e-10
isoAdvection: After conservative bounding: min(alpha) = -1.4918621893401e-16, max(alpha) = 1 + 0
isoAdvection: time consumption = 22%
Phase-1 volume fraction = 0.012968910267778  Min(alpha.water) = -1.4918621893401e-16  1 - Max(alpha.water) = 0
ExecutionTime = 0.5 s  ClockTime = 0 s

Courant Number mean: 0.37499999999998 max: 0.37500000000001
Interface Courant Number mean: 0.0017499999999999 max: 0.375
deltaT = 0.0125
Time = 1.0125

Number of isoAdvector surface cells = 43
isoAdvection: Before conservative bounding: min(alpha) = -0.00096327154325484, max(alpha) = 1 + 0.0011536797235017
isoAdvection: After conservative bounding: min(alpha) = -1.0546932774376e-16, max(alpha) = 1 + 0
isoAdvection: time consumption = 21%
Phase-1 volume fraction = 0.012968910267778  Min(alpha.water) = -1.0546932774376e-16  1 - Max(alpha.water) = 0
ExecutionTime = 0.5 s  ClockTime = 0 s

Courant Number mean: 0.37499999999999 max: 0.37500000000001
Interface Courant Number mean: 0.0023749999999998 max: 0.375
deltaT = 0.0125
Time = 1.025

Number of isoAdvector surface cells = 40
isoAdvection: Before conservative bounding: min(alpha) = -4.9450758973779e-09, max(alpha) = 1 + 0.0022071829705927
isoAdvection: After conservative bounding: min(alpha) = -1.9220736113823e-15, max(alpha) = 1 + 0
isoAdvection: time consumption = 23%
Phase-1 volume fraction = 0.012968910267778  Min(alpha.water) = -1.9220736113823e-15  1 - Max(alpha.water) = 0
ExecutionTime = 0.51 s  ClockTime = 0 s

Courant Number mean: 0.37499999999999 max: 0.37500000000001
Interface Courant Number mean: 0.0020624999999999 max: 0.375
deltaT = 0.0125
Time = 1.0375

Number of isoAdvector surface cells = 40
isoAdvection: Before conservative bounding: min(alpha) = -0.0036032806495911, max(alpha) = 1 + 0.0014561545508447
isoAdvection: After conservative bounding: min(alpha) = -1.2265579479533e-15, max(alpha) = 1 + 0
isoAdvection: time consumption = 23%
Phase-1 volume fraction = 0.012968910267778  Min(alpha.water) = -1.2265579479533e-15  1 - Max(alpha.water) = 0
ExecutionTime = 0.51 s  ClockTime = 0 s

Courant Number mean: 0.37499999999999 max: 0.37500000000001
Interface Courant Number mean: 0.0022499999999998 max: 0.375
deltaT = 0.0125
Time = 1.05

Number of isoAdvector surface cells = 41
isoAdvection: Before conservative bounding: min(alpha) = -0.001362117745196, max(alpha) = 1 + 5.6992188746108e-12
isoAdvection: After conservative bounding: min(alpha) = -7.8394872157376e-16, max(alpha) = 1 + 0
isoAdvection: time consumption = 23%
Phase-1 volume fraction = 0.012968910267778  Min(alpha.water) = -7.8394872157376e-16  1 - Max(alpha.water) = 0
ExecutionTime = 0.51 s  ClockTime = 0 s

Courant Number mean: 0.37499999999999 max: 0.37500000000001
Interface Courant Number mean: 0.0021249999999999 max: 0.375
deltaT = 0.0125
Time = 1.0625

Number of isoAdvector surface cells = 38
isoAdvection: Before conservative bounding: min(alpha) = -6.9427939274405e-09, max(alpha) = 1 + 9.6430931466385e-05
isoAdvection: After conservative bounding: min(alpha) = -5.0589707259655e-16, max(alpha) = 1 + 0
isoAdvection: time consumption = 24%
Phase-1 volume fraction = 0.012968910267778  Min(alpha.water) = -5.0589707259655e-16  1 - Max(alpha.water) = 0
ExecutionTime = 0.52 s  ClockTime = 0 s

Courant Number mean: 0.37499999999999 max: 0.37500000000001
Interface Courant Number mean: 0.0020624999999999 max: 0.375
deltaT = 0.0125
Time = 1.075

Number of isoAdvector surface cells = 43
isoAdvection: Before conservative bounding: min(alpha) = -0.0030937983139612, max(alpha) = 1 + 0.00023013532241567
isoAdvection: After conservative bounding: min(alpha) = -3.3169921639981e-16, max(alpha) = 1 + 0
isoAdvection: time consumption = 24%
Phase-1 volume fraction = 0.012968910267778  Min(alpha.water) = -3.3169921639981e-16  1 - Max(alpha.water) = 0
ExecutionTime = 0.52 s  ClockTime = 0 s

Courant Number mean: 0.37499999999999 max: 0.37500000000001
Interface Courant Number mean: 0.0021874999999998 max: 0.375
deltaT = 0.0125
Time = 1.0875

Number of isoAdvector surface cells = 39
isoAdvection: Before conservative bounding: min(alpha) = -0.00045695963866567, max(alpha) = 1 + 5.8619775700208e-14
isoAdvection: After conservative bounding: min(alpha) = -2.2206635805166e-16, max(alpha) = 1 + 5.8619775700208e-14
isoAdvection: time consumption = 24%
Phase-1 volume fraction = 0.012968910267778  Min(alpha.water) = -2.2206635805166e-16  1 - Max(alpha.water) = -5.8619775700208e-14
ExecutionTime = 0.53 s  ClockTime = 0 s

Courant Number mean: 0.37499999999999 max: 0.37500000000001
Interface Courant Number mean: 0.0021874999999999 max: 0.375
deltaT = 0.0125
Time = 1.1

Number of isoAdvector surface cells = 41
isoAdvection: Before conservative bounding: min(alpha) = -0.0071055187222669, max(alpha) = 1 + 3.9798830897553e-11
isoAdvection: After conservative bounding: min(alpha) = -1.5258079005354e-16, max(alpha) = 1 + 0
isoAdvection: time consumption = 24%
Phase-1 volume fraction = 0.012968910267778  Min(alpha.water) = -1.5258079005354e-16  1 - Max(alpha.water) = 0
ExecutionTime = 0.54 s  ClockTime = 0 s

Courant Number mean: 0.37499999999999 max: 0.37500000000001
Interface Courant Number mean: 0.0018124999999999 max: 0.37500000000001
deltaT = 0.0125
Time = 1.1125

Number of isoAdvector surface cells = 43
isoAdvection: Before conservative bounding: min(alpha) = -0.0010485863580112, max(alpha) = 1 + 0.0011297103953798
isoAdvection: After conservative bounding: min(alpha) = -1.3360783208751e-16, max(alpha) = 1 + 0
isoAdvection: time consumption = 24%
Phase-1 volume fraction = 0.012968910267778  Min(alpha.water) = -1.3360783208751e-16  1 - Max(alpha.water) = 0
ExecutionTime = 0.55 s  ClockTime = 0 s

Courant Number mean: 0.37499999999999 max: 0.37500000000001
Interface Courant Number mean: 0.0023749999999998 max: 0.375
deltaT = 0.0125
Time = 1.125

Number of isoAdvector surface cells = 40
isoAdvection: Before conservative bounding: min(alpha) = -9.6235910837517e-09, max(alpha) = 1 + 0.0023135745815428
isoAdvection: After conservative bounding: min(alpha) = -1.1516356743753e-16, max(alpha) = 1 + 0
isoAdvection: time consumption = 23%
Phase-1 volume fraction = 0.012968910267778  Min(alpha.water) = -1.1516356743753e-16  1 - Max(alpha.water) = 0
ExecutionTime = 0.55 s  ClockTime = 0 s

Courant Number mean: 0.37499999999999 max: 0.37500000000001
Interface Courant Number mean: 0.0020624999999999 max: 0.375
deltaT = 0.0125
Time = 1.1375

Number of isoAdvector surface cells = 40
isoAdvection: Before conservative bounding: min(alpha) = -0.0035099146411962, max(alpha) = 1 + 0.0014446843332068
isoAdvection: After conservative bounding: min(alpha) = -1.2576745200832e-16, max(alpha) = 1 + -1.1102230246252e-16
isoAdvection: time consumption = 23%
Phase-1 volume fraction = 0.012968910267778  Min(alpha.water) = -1.2576745200832e-16  1 - Max(alpha.water) = 1.1102230246252e-16
ExecutionTime = 0.55 s  ClockTime = 0 s

Courant Number mean: 0.37499999999999 max: 0.37500000000001
Interface Courant Number mean: 0.0022499999999998 max: 0.375
deltaT = 0.0125
Time = 1.15

Number of isoAdvector surface cells = 42
isoAdvection: Before conservative bounding: min(alpha) = -0.001132213392852, max(alpha) = 1 + 1.5996093338799e-12
isoAdvection: After conservative bounding: min(alpha) = -9.252933250989e-17, max(alpha) = 1 + 0
isoAdvection: time consumption = 23%
Phase-1 volume fraction = 0.012968910267778  Min(alpha.water) = -9.252933250989e-17  1 - Max(alpha.water) = 0
ExecutionTime = 0.56 s  ClockTime = 0 s

Courant Number mean: 0.37499999999999 max: 0.37500000000001
Interface Courant Number mean: 0.0021249999999999 max: 0.375
deltaT = 0.0125
Time = 1.1625

Number of isoAdvector surface cells = 38
isoAdvection: Before conservative bounding: min(alpha) = -2.039943360066e-09, max(alpha) = 1 + 0.00010103995906885
isoAdvection: After conservative bounding: min(alpha) = -7.8035809190836e-17, max(alpha) = 1 + 2.2204460492503e-16
isoAdvection: time consumption = 23%
Phase-1 volume fraction = 0.012968910267778  Min(alpha.water) = -7.8035809190836e-17  1 - Max(alpha.water) = -2.2204460492503e-16
ExecutionTime = 0.56 s  ClockTime = 0 s

Courant Number mean: 0.37499999999999 max: 0.37500000000001
Interface Courant Number mean: 0.0020624999999999 max: 0.375
deltaT = 0.0125
Time = 1.175

Number of isoAdvector surface cells = 43
isoAdvection: Before conservative bounding: min(alpha) = -0.0030687324923093, max(alpha) = 1 + 0.00021123703555626
isoAdvection: After conservative bounding: min(alpha) = -6.9013618966674e-17, max(alpha) = 1 + 0
isoAdvection: time consumption = 23%
Phase-1 volume fraction = 0.012968910267778  Min(alpha.water) = -6.9013618966674e-17  1 - Max(alpha.water) = 0
ExecutionTime = 0.56 s  ClockTime = 0 s

Courant Number mean: 0.37499999999999 max: 0.37500000000001
Interface Courant Number mean: 0.0022499999999998 max: 0.375
deltaT = 0.0125
Time = 1.1875

Number of isoAdvector surface cells = 39
isoAdvection: Before conservative bounding: min(alpha) = -2.3836002616129e-12, max(alpha) = 1 + 5.9952043329758e-15
isoAdvection: After conservative bounding: min(alpha) = -6.0504425262257e-17, max(alpha) = 1 + 5.9952043329758e-15
isoAdvection: time consumption = 24%
Phase-1 volume fraction = 0.012968910267778  Min(alpha.water) = -6.0504425262257e-17  1 - Max(alpha.water) = -5.9952043329758e-15
ExecutionTime = 0.57 s  ClockTime = 0 s

Courant Number mean: 0.37499999999999 max: 0.37500000000001
Interface Courant Number mean: 0.0021874999999999 max: 0.375
deltaT = 0.0125
Time = 1.2

Number of isoAdvector surface cells = 42
isoAdvection: Before conservative bounding: min(alpha) = -0.0075022168148434, max(alpha) = 1 + 8.1432638410206e-12
isoAdvection: After conservative bounding: min(alpha) = -1.5265566588596e-15, max(alpha) = 1 + 0
isoAdvection: time consumption = 24%
Phase-1 volume fraction = 0.012968910267778  Min(alpha.water) = -1.5265566588596e-15  1 - Max(alpha.water) = 0
ExecutionTime = 0.59 s  ClockTime = 0 s

Courant Number mean: 0.37499999999999 max: 0.37500000000001
Interface Courant Number mean: 0.0018124999999999 max: 0.37500000000001
deltaT = 0.0125
Time = 1.2125

Number of isoAdvector surface cells = 42
isoAdvection: Before conservative bounding: min(alpha) = -0.0011484956511283, max(alpha) = 1 + 0.0010765672299535
isoAdvection: After conservative bounding: min(alpha) = -9.5044220151294e-16, max(alpha) = 1 + 2.2204460492503e-16
isoAdvection: time consumption = 23%
Phase-1 volume fraction = 0.012968910267778  Min(alpha.water) = -9.5044220151294e-16  1 - Max(alpha.water) = -2.2204460492503e-16
ExecutionTime = 0.59 s  ClockTime = 0 s

Courant Number mean: 0.37499999999999 max: 0.37500000000001
Interface Courant Number mean: 0.0023749999999998 max: 0.375
deltaT = 0.0125
Time = 1.225

Number of isoAdvector surface cells = 40
isoAdvection: Before conservative bounding: min(alpha) = -1.2798789805757e-14, max(alpha) = 1 + 0.0023874436632763
isoAdvection: After conservative bounding: min(alpha) = -1.2798789805757e-14, max(alpha) = 1 + 0
isoAdvection: time consumption = 24%
Phase-1 volume fraction = 0.012968910267778  Min(alpha.water) = -1.2798789805757e-14  1 - Max(alpha.water) = 0
ExecutionTime = 0.6 s  ClockTime = 0 s

Courant Number mean: 0.37499999999999 max: 0.37500000000001
Interface Courant Number mean: 0.0020624999999999 max: 0.375
deltaT = 0.0125
Time = 1.2375

Number of isoAdvector surface cells = 40
isoAdvection: Before conservative bounding: min(alpha) = -0.0034372159671835, max(alpha) = 1 + 0.0014220596125218
isoAdvection: After conservative bounding: min(alpha) = -1.0178212345081e-15, max(alpha) = 1 + 0
isoAdvection: time consumption = 24%
Phase-1 volume fraction = 0.012968910267778  Min(alpha.water) = -1.0178212345081e-15  1 - Max(alpha.water) = 0
ExecutionTime = 0.6 s  ClockTime = 0 s

Courant Number mean: 0.37499999999999 max: 0.37500000000001
Interface Courant Number mean: 0.0022499999999998 max: 0.375
deltaT = 0.0125
Time = 1.25

Number of isoAdvector surface cells = 42
isoAdvection: Before conservative bounding: min(alpha) = -0.00089158395044317, max(alpha) = 1 + 2.3234747459355e-12
isoAdvection: After conservative bounding: min(alpha) = -6.4574420018885e-16, max(alpha) = 1 + 0
isoAdvection: time consumption = 24%
Phase-1 volume fraction = 0.012968910267778  Min(alpha.water) = -6.4574420018885e-16  1 - Max(alpha.water) = 0
ExecutionTime = 0.6 s  ClockTime = 0 s

Courant Number mean: 0.37499999999999 max: 0.37500000000001
Interface Courant Number mean: 0.0021249999999998 max: 0.375
deltaT = 0.0125
Time = 1.2625

Number of isoAdvector surface cells = 39
isoAdvection: Before conservative bounding: min(alpha) = -3.8427234866356e-09, max(alpha) = 1 + 0.00010772667722958
isoAdvection: After conservative bounding: min(alpha) = -4.1451504590947e-16, max(alpha) = 1 + 0
isoAdvection: time consumption = 26%
Phase-1 volume fraction = 0.012968910267778  Min(alpha.water) = -4.1451504590947e-16  1 - Max(alpha.water) = 0
ExecutionTime = 0.61 s  ClockTime = 0 s

Courant Number mean: 0.37499999999999 max: 0.37500000000001
Interface Courant Number mean: 0.0020624999999999 max: 0.375
deltaT = 0.0125
Time = 1.275

Number of isoAdvector surface cells = 42
isoAdvection: Before conservative bounding: min(alpha) = -0.0030688465765854, max(alpha) = 1 + 0.00019477353075303
isoAdvection: After conservative bounding: min(alpha) = -2.6943426450631e-16, max(alpha) = 1 + 2.2204460492503e-16
isoAdvection: time consumption = 26%
Phase-1 volume fraction = 0.012968910267778  Min(alpha.water) = -2.6943426450631e-16  1 - Max(alpha.water) = -2.2204460492503e-16
ExecutionTime = 0.61 s  ClockTime = 0 s

Courant Number mean: 0.37499999999999 max: 0.37500000000001
Interface Courant Number mean: 0.0022499999999998 max: 0.375
deltaT = 0.0125
Time = 1.2875

Number of isoAdvector surface cells = 39
isoAdvection: Before conservative bounding: min(alpha) = -5.3074870887126e-12, max(alpha) = 1 + -6.2172489379009e-15
isoAdvection: After conservative bounding: min(alpha) = -2.2562023036431e-16, max(alpha) = 1 + -6.2172489379009e-15
isoAdvection: time consumption = 26%
Phase-1 volume fraction = 0.012968910267778  Min(alpha.water) = -2.2562023036431e-16  1 - Max(alpha.water) = 6.2172489379009e-15
ExecutionTime = 0.62 s  ClockTime = 0 s

Courant Number mean: 0.37499999999999 max: 0.37500000000001
Interface Courant Number mean: 0.0021249999999999 max: 0.375
deltaT = 0.0125
Time = 1.3

Number of isoAdvector surface cells = 42
isoAdvection: Before conservative bounding: min(alpha) = -0.0078666224250641, max(alpha) = 1 + 1.0516032489249e-12
isoAdvection: After conservative bounding: min(alpha) = -1.346145417358e-15, max(alpha) = 1 + 0
isoAdvection: time consumption = 25%
Phase-1 volume fraction = 0.012968910267778  Min(alpha.water) = -1.346145417358e-15  1 - Max(alpha.water) = 0
ExecutionTime = 0.62 s  ClockTime = 0 s

Courant Number mean: 0.37499999999998 max: 0.37500000000001
Interface Courant Number mean: 0.0018124999999999 max: 0.375
deltaT = 0.0125
Time = 1.3125

Number of isoAdvector surface cells = 43
isoAdvection: Before conservative bounding: min(alpha) = -0.0012225265690721, max(alpha) = 1 + 0.00099943484438336
isoAdvection: After conservative bounding: min(alpha) = -8.6355548182278e-16, max(alpha) = 1 + 2.2204460492503e-16
isoAdvection: time consumption = 25%
Phase-1 volume fraction = 0.012968910267778  Min(alpha.water) = -8.6355548182278e-16  1 - Max(alpha.water) = -2.2204460492503e-16
ExecutionTime = 0.63 s  ClockTime = 0 s

Courant Number mean: 0.37499999999999 max: 0.37500000000001
Interface Courant Number mean: 0.0023749999999998 max: 0.375
deltaT = 0.0125
Time = 1.325

Number of isoAdvector surface cells = 40
isoAdvection: Before conservative bounding: min(alpha) = -3.4600794451833e-14, max(alpha) = 1 + 0.0023813995884916
isoAdvection: After conservative bounding: min(alpha) = -3.4600794451833e-14, max(alpha) = 1 + -1.1102230246252e-16
isoAdvection: time consumption = 25%
Phase-1 volume fraction = 0.012968910267778  Min(alpha.water) = -3.4600794451833e-14  1 - Max(alpha.water) = 1.1102230246252e-16
ExecutionTime = 0.63 s  ClockTime = 0 s

Courant Number mean: 0.37499999999999 max: 0.37500000000001
Interface Courant Number mean: 0.0021249999999999 max: 0.375
deltaT = 0.0125
Time = 1.3375

Number of isoAdvector surface cells = 41
isoAdvection: Before conservative bounding: min(alpha) = -0.0033627853176485, max(alpha) = 1 + 0.001028222468562
isoAdvection: After conservative bounding: min(alpha) = -3.6739806122277e-16, max(alpha) = 1 + -1.1102230246252e-16
isoAdvection: time consumption = 25%
Phase-1 volume fraction = 0.012968910267778  Min(alpha.water) = -3.6739806122277e-16  1 - Max(alpha.water) = 1.1102230246252e-16
ExecutionTime = 0.63 s  ClockTime = 0 s

Courant Number mean: 0.37499999999999 max: 0.37500000000001
Interface Courant Number mean: 0.0022499999999998 max: 0.375
deltaT = 0.0125
Time = 1.35

Number of isoAdvector surface cells = 42
isoAdvection: Before conservative bounding: min(alpha) = -0.00065383777697436, max(alpha) = 1 + 8.199685375132e-11
isoAdvection: After conservative bounding: min(alpha) = -2.5018987782621e-16, max(alpha) = 1 + 2.2204460492503e-16
isoAdvection: time consumption = 26%
Phase-1 volume fraction = 0.012968910267778  Min(alpha.water) = -2.5018987782621e-16  1 - Max(alpha.water) = -2.2204460492503e-16
ExecutionTime = 0.64 s  ClockTime = 0 s

Courant Number mean: 0.37499999999999 max: 0.37500000000001
Interface Courant Number mean: 0.0021249999999999 max: 0.375
deltaT = 0.0125
Time = 1.3625

Number of isoAdvector surface cells = 39
isoAdvection: Before conservative bounding: min(alpha) = -7.0076825939291e-09, max(alpha) = 1 + 0.00011516772150855
isoAdvection: After conservative bounding: min(alpha) = -1.7570482277859e-16, max(alpha) = 1 + 0
isoAdvection: time consumption = 26%
Phase-1 volume fraction = 0.012968910267778  Min(alpha.water) = -1.7570482277859e-16  1 - Max(alpha.water) = 0
ExecutionTime = 0.64 s  ClockTime = 0 s

Courant Number mean: 0.37499999999999 max: 0.37500000000001
Interface Courant Number mean: 0.0020624999999999 max: 0.375
deltaT = 0.0125
Time = 1.375

Number of isoAdvector surface cells = 42
isoAdvection: Before conservative bounding: min(alpha) = -0.0030733075118123, max(alpha) = 1 + 0.00011966811496644
isoAdvection: After conservative bounding: min(alpha) = -1.2769771379623e-16, max(alpha) = 1 + 0
isoAdvection: time consumption = 26%
Phase-1 volume fraction = 0.012968910267778  Min(alpha.water) = -1.2769771379623e-16  1 - Max(alpha.water) = 0
ExecutionTime = 0.65 s  ClockTime = 0 s

Courant Number mean: 0.37499999999999 max: 0.37500000000001
Interface Courant Number mean: 0.0022499999999999 max: 0.37500000000001
deltaT = 0.0125
Time = 1.3875

Number of isoAdvector surface cells = 38
isoAdvection: Before conservative bounding: min(alpha) = -1.1508384523129e-11, max(alpha) = 1 + 6.9159655780027e-09
isoAdvection: After conservative bounding: min(alpha) = -1.0550524593187e-16, max(alpha) = 1 + -1.1102230246252e-16
isoAdvection: time consumption = 26%
Phase-1 volume fraction = 0.012968910267778  Min(alpha.water) = -1.0550524593187e-16  1 - Max(alpha.water) = 1.1102230246252e-16
ExecutionTime = 0.65 s  ClockTime = 0 s

Courant Number mean: 0.37499999999999 max: 0.37500000000001
Interface Courant Number mean: 0.0021249999999999 max: 0.375
deltaT = 0.0125
Time = 1.4

Number of isoAdvector surface cells = 42
isoAdvection: Before conservative bounding: min(alpha) = -0.0082186627387553, max(alpha) = 1 + 0.00011696088675905
isoAdvection: After conservative bounding: min(alpha) = -9.1606323684721e-17, max(alpha) = 1 + 0
isoAdvection: time consumption = 26%
Phase-1 volume fraction = 0.012968910267778  Min(alpha.water) = -9.1606323684721e-17  1 - Max(alpha.water) = 0
ExecutionTime = 0.66 s  ClockTime = 1 s

Courant Number mean: 0.37499999999998 max: 0.37500000000001
Interface Courant Number mean: 0.0019374999999999 max: 0.375
deltaT = 0.0125
Time = 1.4125

Number of isoAdvector surface cells = 42
isoAdvection: Before conservative bounding: min(alpha) = -0.00125783785927, max(alpha) = 1 + 0.0010258816731072
isoAdvection: After conservative bounding: min(alpha) = -8.6990487430946e-17, max(alpha) = 1 + 0
isoAdvection: time consumption = 26%
Phase-1 volume fraction = 0.012968910267778  Min(alpha.water) = -8.6990487430946e-17  1 - Max(alpha.water) = 0
ExecutionTime = 0.67 s  ClockTime = 1 s

Courant Number mean: 0.37499999999999 max: 0.37500000000001
Interface Courant Number mean: 0.0023749999999998 max: 0.375
deltaT = 0.0125
Time = 1.425

Number of isoAdvector surface cells = 40
isoAdvection: Before conservative bounding: min(alpha) = -9.7144514654701e-14, max(alpha) = 1 + 0.0022167889804576
isoAdvection: After conservative bounding: min(alpha) = -9.7144514654701e-14, max(alpha) = 1 + 0
isoAdvection: time consumption = 26%
Phase-1 volume fraction = 0.012968910267778  Min(alpha.water) = -9.7144514654701e-14  1 - Max(alpha.water) = 0
ExecutionTime = 0.67 s  ClockTime = 1 s

Courant Number mean: 0.37499999999999 max: 0.37500000000001
Interface Courant Number mean: 0.0021249999999998 max: 0.375
deltaT = 0.0125
Time = 1.4375

Number of isoAdvector surface cells = 41
isoAdvection: Before conservative bounding: min(alpha) = -0.0032753449463455, max(alpha) = 1 + 0.0010333115452772
isoAdvection: After conservative bounding: min(alpha) = -7.2634430767454e-17, max(alpha) = 1 + 2.2204460492503e-16
isoAdvection: time consumption = 26%
Phase-1 volume fraction = 0.012968910267778  Min(alpha.water) = -7.2634430767454e-17  1 - Max(alpha.water) = -2.2204460492503e-16
ExecutionTime = 0.68 s  ClockTime = 1 s

Courant Number mean: 0.37499999999999 max: 0.37500000000001
Interface Courant Number mean: 0.0022499999999998 max: 0.375
deltaT = 0.0125
Time = 1.45

Number of isoAdvector surface cells = 42
isoAdvection: Before conservative bounding: min(alpha) = -0.00041579756332932, max(alpha) = 1 + 9.825444902134e-10
isoAdvection: After conservative bounding: min(alpha) = -1.1102230246252e-16, max(alpha) = 1 + 0
isoAdvection: time consumption = 26%
Phase-1 volume fraction = 0.012968910267778  Min(alpha.water) = -1.1102230246252e-16  1 - Max(alpha.water) = 0
ExecutionTime = 0.68 s  ClockTime = 1 s

Courant Number mean: 0.37499999999999 max: 0.37500000000001
Interface Courant Number mean: 0.0021249999999998 max: 0.375
deltaT = 0.0125
Time = 1.4625

Number of isoAdvector surface cells = 39
isoAdvection: Before conservative bounding: min(alpha) = -4.0809135151004e-10, max(alpha) = 1 + 0.00011493134094787
isoAdvection: After conservative bounding: min(alpha) = -1.5265566588596e-15, max(alpha) = 1 + 0
isoAdvection: time consumption = 26%
Phase-1 volume fraction = 0.012968910267778  Min(alpha.water) = -1.5265566588596e-15  1 - Max(alpha.water) = 0
ExecutionTime = 0.68 s  ClockTime = 1 s

Courant Number mean: 0.37499999999999 max: 0.37500000000001
Interface Courant Number mean: 0.0020624999999999 max: 0.375
deltaT = 0.0125
Time = 1.475

Number of isoAdvector surface cells = 42
[...]
Phase-1 volume fraction = 0.012968910267778  Min(alpha.water) = -2.3932145464102e-17  1 - Max(alpha.water) = 0
ExecutionTime = 1.59 s  ClockTime = 1 s

Courant Number mean: 0.37499999999998 max: 0.37500000000001
Interface Courant Number mean: 0.0020624999999998 max: 0.375
deltaT = 0.0125
Time = 3.6

Number of isoAdvector surface cells = 42
isoAdvection: Before conservative bounding: min(alpha) = -0.0043004532942835, max(alpha) = 1 + 0.0019181066047043
isoAdvection: After conservative bounding: min(alpha) = -5.1694759584109e-16, max(alpha) = 1 + 2.2204460492503e-16
isoAdvection: time consumption = 23%
Phase-1 volume fraction = 0.012968910267778  Min(alpha.water) = -5.1694759584109e-16  1 - Max(alpha.water) = -2.2204460492503e-16
ExecutionTime = 1.61 s  ClockTime = 1 s

Courant Number mean: 0.37499999999998 max: 0.375
Interface Courant Number mean: 0.0020624999999998 max: 0.375
deltaT = 0.0125
Time = 3.6125

Number of isoAdvector surface cells = 38
isoAdvection: Before conservative bounding: min(alpha) = -0.00071641161392641, max(alpha) = 1 + 0.00047339441993954
isoAdvection: After conservative bounding: min(alpha) = -2.8079012837861e-16, max(alpha) = 1 + 0
isoAdvection: time consumption = 23%
Phase-1 volume fraction = 0.012968910267778  Min(alpha.water) = -2.8079012837861e-16  1 - Max(alpha.water) = 0
ExecutionTime = 1.62 s  ClockTime = 1 s

Courant Number mean: 0.37499999999999 max: 0.37500000000001
Interface Courant Number mean: 0.0020624999999999 max: 0.37500000000001
deltaT = 0.0125
Time = 3.625

Number of isoAdvector surface cells = 41
isoAdvection: Before conservative bounding: min(alpha) = -1.4078467211465e-10, max(alpha) = 1 + 0.0035169543898435
isoAdvection: After conservative bounding: min(alpha) = -1.4577544016391e-16, max(alpha) = 1 + 0
isoAdvection: time consumption = 23%
Phase-1 volume fraction = 0.012968910267778  Min(alpha.water) = -1.4577544016391e-16  1 - Max(alpha.water) = 0
ExecutionTime = 1.62 s  ClockTime = 1 s

Courant Number mean: 0.37499999999999 max: 0.37500000000001
Interface Courant Number mean: 0.0022499999999998 max: 0.37500000000001
deltaT = 0.0125
Time = 3.6375

Number of isoAdvector surface cells = 42
isoAdvection: Before conservative bounding: min(alpha) = -0.0016672945062896, max(alpha) = 1 + 0.00011323279825892
isoAdvection: After conservative bounding: min(alpha) = -8.5440708634899e-17, max(alpha) = 1 + 0
isoAdvection: time consumption = 23%
Phase-1 volume fraction = 0.012968910267778  Min(alpha.water) = -8.5440708634899e-17  1 - Max(alpha.water) = 0
ExecutionTime = 1.62 s  ClockTime = 1 s

Courant Number mean: 0.37499999999998 max: 0.37500000000001
Interface Courant Number mean: 0.0021249999999998 max: 0.375
deltaT = 0.0125
Time = 3.65

Number of isoAdvector surface cells = 40
isoAdvection: Before conservative bounding: min(alpha) = -0.0018106430786988, max(alpha) = 1 + 5.0048964972405e-10
isoAdvection: After conservative bounding: min(alpha) = -7.1123662515049e-17, max(alpha) = 1 + 0
isoAdvection: time consumption = 23%
Phase-1 volume fraction = 0.012968910267778  Min(alpha.water) = -7.1123662515049e-17  1 - Max(alpha.water) = 0
ExecutionTime = 1.63 s  ClockTime = 1 s

Courant Number mean: 0.37499999999999 max: 0.37500000000001
Interface Courant Number mean: 0.0021874999999998 max: 0.375
deltaT = 0.0125
Time = 3.6625

Number of isoAdvector surface cells = 37
isoAdvection: Before conservative bounding: min(alpha) = -5.1411234982743e-09, max(alpha) = 1 + 0.00062659391385678
isoAdvection: After conservative bounding: min(alpha) = -4.5646728034599e-17, max(alpha) = 1 + 0
isoAdvection: time consumption = 23%
Phase-1 volume fraction = 0.012968910267778  Min(alpha.water) = -4.5646728034599e-17  1 - Max(alpha.water) = 0
ExecutionTime = 1.63 s  ClockTime = 1 s

Courant Number mean: 0.37499999999998 max: 0.37500000000001
Interface Courant Number mean: 0.0022499999999998 max: 0.375
deltaT = 0.0125
Time = 3.675

Number of isoAdvector surface cells = 41
isoAdvection: Before conservative bounding: min(alpha) = -0.0064372604983664, max(alpha) = 1 + 3.0526470240488e-11
isoAdvection: After conservative bounding: min(alpha) = -5.5511151231258e-17, max(alpha) = 1 + 0
isoAdvection: time consumption = 23%
Phase-1 volume fraction = 0.012968910267778  Min(alpha.water) = -5.5511151231258e-17  1 - Max(alpha.water) = 0
ExecutionTime = 1.64 s  ClockTime = 1 s

Courant Number mean: 0.37499999999998 max: 0.375
Interface Courant Number mean: 0.0021874999999998 max: 0.375
deltaT = 0.0125
Time = 3.6875

Number of isoAdvector surface cells = 38
isoAdvection: Before conservative bounding: min(alpha) = -2.2849654807144e-09, max(alpha) = 1 + 2.3441335539331e-09
isoAdvection: After conservative bounding: min(alpha) = -1.700207759854e-17, max(alpha) = 1 + 0
isoAdvection: time consumption = 23%
Phase-1 volume fraction = 0.012968910267778  Min(alpha.water) = -1.700207759854e-17  1 - Max(alpha.water) = 0
ExecutionTime = 1.64 s  ClockTime = 2 s

Courant Number mean: 0.37499999999998 max: 0.37500000000001
Interface Courant Number mean: 0.0020624999999998 max: 0.375
deltaT = 0.0125
Time = 3.7

Number of isoAdvector surface cells = 43
isoAdvection: Before conservative bounding: min(alpha) = -0.0043449186123725, max(alpha) = 1 + 0.0020131959881666
isoAdvection: After conservative bounding: min(alpha) = -1.6740081543176e-16, max(alpha) = 1 + 0
isoAdvection: time consumption = 23%
Phase-1 volume fraction = 0.012968910267778  Min(alpha.water) = -1.6740081543176e-16  1 - Max(alpha.water) = 0
ExecutionTime = 1.66 s  ClockTime = 2 s

Courant Number mean: 0.37499999999999 max: 0.37500000000001
Interface Courant Number mean: 0.0021249999999999 max: 0.37500000000001
deltaT = 0.0125
Time = 3.7125

Number of isoAdvector surface cells = 38
isoAdvection: Before conservative bounding: min(alpha) = -0.00085597577797501, max(alpha) = 1 + 0.00047669678440942
isoAdvection: After conservative bounding: min(alpha) = -1.049507702966e-16, max(alpha) = 1 + 0
isoAdvection: time consumption = 22%
Phase-1 volume fraction = 0.012968910267778  Min(alpha.water) = -1.049507702966e-16  1 - Max(alpha.water) = 0
ExecutionTime = 1.66 s  ClockTime = 2 s

Courant Number mean: 0.37499999999999 max: 0.37500000000001
Interface Courant Number mean: 0.0020624999999999 max: 0.37500000000001
deltaT = 0.0125
Time = 3.725

Number of isoAdvector surface cells = 41
isoAdvection: Before conservative bounding: min(alpha) = -5.6966121273275e-10, max(alpha) = 1 + 0.0037566920799434
isoAdvection: After conservative bounding: min(alpha) = -7.632783294298e-17, max(alpha) = 1 + 0
isoAdvection: time consumption = 22%
Phase-1 volume fraction = 0.012968910267778  Min(alpha.water) = -7.632783294298e-17  1 - Max(alpha.water) = 0
ExecutionTime = 1.67 s  ClockTime = 2 s

Courant Number mean: 0.37499999999999 max: 0.37500000000001
Interface Courant Number mean: 0.0022499999999998 max: 0.37500000000001
deltaT = 0.0125
Time = 3.7375

Number of isoAdvector surface cells = 42
isoAdvection: Before conservative bounding: min(alpha) = -0.0021868992832364, max(alpha) = 1 + 8.5216045592418e-05
isoAdvection: After conservative bounding: min(alpha) = -6.2450045135165e-17, max(alpha) = 1 + 2.2204460492503e-16
isoAdvection: time consumption = 22%
Phase-1 volume fraction = 0.012968910267778  Min(alpha.water) = -6.2450045135165e-17  1 - Max(alpha.water) = -2.2204460492503e-16
ExecutionTime = 1.67 s  ClockTime = 2 s

Courant Number mean: 0.37499999999998 max: 0.37500000000001
Interface Courant Number mean: 0.0021249999999998 max: 0.375
deltaT = 0.0125
Time = 3.75

Number of isoAdvector surface cells = 41
isoAdvection: Before conservative bounding: min(alpha) = -0.0017176006217997, max(alpha) = 1 + 4.8647907924249e-10
isoAdvection: After conservative bounding: min(alpha) = -1.118896642005e-16, max(alpha) = 1 + 0
isoAdvection: time consumption = 22%
Phase-1 volume fraction = 0.012968910267778  Min(alpha.water) = -1.118896642005e-16  1 - Max(alpha.water) = 0
ExecutionTime = 1.67 s  ClockTime = 2 s

Courant Number mean: 0.37499999999998 max: 0.375
Interface Courant Number mean: 0.0021874999999998 max: 0.375
deltaT = 0.0125
Time = 3.7625

Number of isoAdvector surface cells = 37
isoAdvection: Before conservative bounding: min(alpha) = -1.6882155395859e-13, max(alpha) = 1 + 0.00064787394146615
isoAdvection: After conservative bounding: min(alpha) = -1.6882155395859e-13, max(alpha) = 1 + 0
isoAdvection: time consumption = 22%
Phase-1 volume fraction = 0.012968910267778  Min(alpha.water) = -1.6882155395859e-13  1 - Max(alpha.water) = 0
ExecutionTime = 1.68 s  ClockTime = 2 s

Courant Number mean: 0.37499999999998 max: 0.37500000000001
Interface Courant Number mean: 0.0022499999999998 max: 0.375
deltaT = 0.0125
Time = 3.775

Number of isoAdvector surface cells = 41
isoAdvection: Before conservative bounding: min(alpha) = -0.0060026891109558, max(alpha) = 1 + 3.1062530325698e-10
isoAdvection: After conservative bounding: min(alpha) = -9.6026855811685e-17, max(alpha) = 1 + 0
isoAdvection: time consumption = 22%
Phase-1 volume fraction = 0.012968910267778  Min(alpha.water) = -9.6026855811685e-17  1 - Max(alpha.water) = 0
ExecutionTime = 1.68 s  ClockTime = 2 s

Courant Number mean: 0.37499999999999 max: 0.37500000000001
Interface Courant Number mean: 0.0021874999999998 max: 0.37500000000001
deltaT = 0.0125
Time = 3.7875

Number of isoAdvector surface cells = 39
isoAdvection: Before conservative bounding: min(alpha) = -3.6560799318575e-09, max(alpha) = 1 + 5.4588391584787e-09
isoAdvection: After conservative bounding: min(alpha) = -1.2490009027033e-16, max(alpha) = 1 + 0
isoAdvection: time consumption = 22%
Phase-1 volume fraction = 0.012968910267778  Min(alpha.water) = -1.2490009027033e-16  1 - Max(alpha.water) = 0
ExecutionTime = 1.69 s  ClockTime = 2 s

Courant Number mean: 0.37499999999998 max: 0.37500000000001
Interface Courant Number mean: 0.0020624999999998 max: 0.375
deltaT = 0.0125
Time = 3.8

Number of isoAdvector surface cells = 42
isoAdvection: Before conservative bounding: min(alpha) = -0.0051945253329806, max(alpha) = 1 + 0.0020664606155625
isoAdvection: After conservative bounding: min(alpha) = -9.7144514654701e-17, max(alpha) = 1 + 0
isoAdvection: time consumption = 22%
Phase-1 volume fraction = 0.012968910267778  Min(alpha.water) = -9.7144514654701e-17  1 - Max(alpha.water) = 0
ExecutionTime = 1.7 s  ClockTime = 2 s

Courant Number mean: 0.37499999999998 max: 0.375
Interface Courant Number mean: 0.0021249999999998 max: 0.375
deltaT = 0.0125
Time = 3.8125

Number of isoAdvector surface cells = 39
isoAdvection: Before conservative bounding: min(alpha) = -3.4040651300926e-17, max(alpha) = 1 + 0.00047980185595531
isoAdvection: After conservative bounding: min(alpha) = -3.4040651300926e-17, max(alpha) = 1 + 0
isoAdvection: time consumption = 22%
Phase-1 volume fraction = 0.012968910267778  Min(alpha.water) = -3.4040651300926e-17  1 - Max(alpha.water) = 0
ExecutionTime = 1.7 s  ClockTime = 2 s

Courant Number mean: 0.37499999999999 max: 0.37500000000001
Interface Courant Number mean: 0.0020624999999999 max: 0.37500000000001
deltaT = 0.0125
Time = 3.825

Number of isoAdvector surface cells = 41
isoAdvection: Before conservative bounding: min(alpha) = -2.2933295423279e-09, max(alpha) = 1 + 0.0040712200157818
isoAdvection: After conservative bounding: min(alpha) = -2.4936399667267e-17, max(alpha) = 1 + 0
isoAdvection: time consumption = 22%
Phase-1 volume fraction = 0.012968910267778  Min(alpha.water) = -2.4936399667267e-17  1 - Max(alpha.water) = 0
ExecutionTime = 1.71 s  ClockTime = 2 s

Courant Number mean: 0.37499999999999 max: 0.37500000000001
Interface Courant Number mean: 0.0022499999999998 max: 0.375
deltaT = 0.0125
Time = 3.8375

Number of isoAdvector surface cells = 42
isoAdvection: Before conservative bounding: min(alpha) = -0.0016004650400286, max(alpha) = 1 + 9.3223570057921e-05
isoAdvection: After conservative bounding: min(alpha) = -9.0205620750794e-17, max(alpha) = 1 + 0
isoAdvection: time consumption = 22%
Phase-1 volume fraction = 0.012968910267778  Min(alpha.water) = -9.0205620750794e-17  1 - Max(alpha.water) = 0
ExecutionTime = 1.71 s  ClockTime = 2 s

Courant Number mean: 0.37499999999998 max: 0.37500000000001
Interface Courant Number mean: 0.0021249999999998 max: 0.375
deltaT = 0.0125
Time = 3.85

Number of isoAdvector surface cells = 40
isoAdvection: Before conservative bounding: min(alpha) = -0.0018853137401598, max(alpha) = 1 + 4.8780357531086e-10
isoAdvection: After conservative bounding: min(alpha) = -1.1102230246252e-16, max(alpha) = 1 + 0
isoAdvection: time consumption = 22%
Phase-1 volume fraction = 0.012968910267778  Min(alpha.water) = -1.1102230246252e-16  1 - Max(alpha.water) = 0
ExecutionTime = 1.71 s  ClockTime = 2 s

Courant Number mean: 0.37499999999999 max: 0.37500000000001
Interface Courant Number mean: 0.0021874999999998 max: 0.375
deltaT = 0.0125
Time = 3.8625

Number of isoAdvector surface cells = 39
isoAdvection: Before conservative bounding: min(alpha) = -6.5581871530607e-13, max(alpha) = 1 + 0.00017436985660968
isoAdvection: After conservative bounding: min(alpha) = -6.5581871530607e-13, max(alpha) = 1 + 0
isoAdvection: time consumption = 22%
Phase-1 volume fraction = 0.012968910267778  Min(alpha.water) = -6.5581871530607e-13  1 - Max(alpha.water) = 0
ExecutionTime = 1.72 s  ClockTime = 2 s

Courant Number mean: 0.37499999999998 max: 0.37500000000001
Interface Courant Number mean: 0.0021874999999998 max: 0.375
deltaT = 0.0125
Time = 3.875

Number of isoAdvector surface cells = 41
isoAdvection: Before conservative bounding: min(alpha) = -0.004296640641548, max(alpha) = 1 + 2.7785682643611e-09
isoAdvection: After conservative bounding: min(alpha) = -1.1796119636642e-16, max(alpha) = 1 + 2.2204460492503e-16
isoAdvection: time consumption = 22%
Phase-1 volume fraction = 0.012968910267778  Min(alpha.water) = -1.1796119636642e-16  1 - Max(alpha.water) = -2.2204460492503e-16
ExecutionTime = 1.72 s  ClockTime = 2 s

Courant Number mean: 0.37499999999998 max: 0.375
Interface Courant Number mean: 0.0021874999999998 max: 0.375
deltaT = 0.0125
Time = 3.8875

Number of isoAdvector surface cells = 39
isoAdvection: Before conservative bounding: min(alpha) = -6.1655917871217e-09, max(alpha) = 1 + 1.4210854715202e-14
isoAdvection: After conservative bounding: min(alpha) = -5.5511151231258e-17, max(alpha) = 1 + 1.4210854715202e-14
isoAdvection: time consumption = 22%
Phase-1 volume fraction = 0.012968910267778  Min(alpha.water) = -5.5511151231258e-17  1 - Max(alpha.water) = -1.4210854715202e-14
ExecutionTime = 1.72 s  ClockTime = 2 s

Courant Number mean: 0.37499999999998 max: 0.37500000000001
Interface Courant Number mean: 0.0020624999999998 max: 0.375
deltaT = 0.0125
Time = 3.9

Number of isoAdvector surface cells = 43
isoAdvection: Before conservative bounding: min(alpha) = -0.0055514238491763, max(alpha) = 1 + 0.0018886195294843
isoAdvection: After conservative bounding: min(alpha) = -5.4643789493269e-17, max(alpha) = 1 + 2.2204460492503e-16
isoAdvection: time consumption = 22%
Phase-1 volume fraction = 0.012968910267778  Min(alpha.water) = -5.4643789493269e-17  1 - Max(alpha.water) = -2.2204460492503e-16
ExecutionTime = 1.74 s  ClockTime = 2 s

Courant Number mean: 0.37499999999999 max: 0.37500000000001
Interface Courant Number mean: 0.0021249999999999 max: 0.37500000000001
deltaT = 0.0125
Time = 3.9125

Number of isoAdvector surface cells = 38
isoAdvection: Before conservative bounding: min(alpha) = -1.599536408977e-17, max(alpha) = 1 + 0.00047887778736477
isoAdvection: After conservative bounding: min(alpha) = -1.599536408977e-17, max(alpha) = 1 + 0
isoAdvection: time consumption = 21%
Phase-1 volume fraction = 0.012968910267778  Min(alpha.water) = -1.599536408977e-17  1 - Max(alpha.water) = 0
ExecutionTime = 1.74 s  ClockTime = 2 s

Courant Number mean: 0.37499999999998 max: 0.37500000000001
Interface Courant Number mean: 0.0020624999999998 max: 0.375
deltaT = 0.0125
Time = 3.925

Number of isoAdvector surface cells = 41
isoAdvection: Before conservative bounding: min(alpha) = -8.829665182385e-09, max(alpha) = 1 + 0.0042557635523679
isoAdvection: After conservative bounding: min(alpha) = -3.5561831257525e-17, max(alpha) = 1 + 0
isoAdvection: time consumption = 21%
Phase-1 volume fraction = 0.012968910267778  Min(alpha.water) = -3.5561831257525e-17  1 - Max(alpha.water) = 0
ExecutionTime = 1.75 s  ClockTime = 2 s

Courant Number mean: 0.37499999999998 max: 0.375
Interface Courant Number mean: 0.0022499999999998 max: 0.375
deltaT = 0.0125
Time = 3.9375

Number of isoAdvector surface cells = 42
isoAdvection: Before conservative bounding: min(alpha) = -0.0011051250200704, max(alpha) = 1 + 0.00010572208683723
isoAdvection: After conservative bounding: min(alpha) = -1.873501354055e-16, max(alpha) = 1 + 0
isoAdvection: time consumption = 21%
Phase-1 volume fraction = 0.012968910267778  Min(alpha.water) = -1.873501354055e-16  1 - Max(alpha.water) = 0
ExecutionTime = 1.75 s  ClockTime = 2 s

Courant Number mean: 0.37499999999998 max: 0.37500000000001
Interface Courant Number mean: 0.0021249999999998 max: 0.375
deltaT = 0.0125
Time = 3.95

Number of isoAdvector surface cells = 40
isoAdvection: Before conservative bounding: min(alpha) = -0.0022158673758133, max(alpha) = 1 + 3.2573344022069e-10
isoAdvection: After conservative bounding: min(alpha) = -1.3877787807814e-17, max(alpha) = 1 + 0
isoAdvection: time consumption = 21%
Phase-1 volume fraction = 0.012968910267778  Min(alpha.water) = -1.3877787807814e-17  1 - Max(alpha.water) = 0
ExecutionTime = 1.75 s  ClockTime = 2 s

Courant Number mean: 0.37499999999999 max: 0.37500000000001
Interface Courant Number mean: 0.0021874999999998 max: 0.375
deltaT = 0.0125
Time = 3.9625

Number of isoAdvector surface cells = 38
isoAdvection: Before conservative bounding: min(alpha) = -8.8169836015561e-12, max(alpha) = 1 + 0.00034557300792537
isoAdvection: After conservative bounding: min(alpha) = -4.336808689942e-17, max(alpha) = 1 + 0
isoAdvection: time consumption = 22%
Phase-1 volume fraction = 0.012968910267778  Min(alpha.water) = -4.336808689942e-17  1 - Max(alpha.water) = 0
ExecutionTime = 1.76 s  ClockTime = 2 s

Courant Number mean: 0.37499999999998 max: 0.37500000000001
Interface Courant Number mean: 0.0021874999999998 max: 0.375
deltaT = 0.0125
Time = 3.975

Number of isoAdvector surface cells = 41
isoAdvection: Before conservative bounding: min(alpha) = -0.0020395364640971, max(alpha) = 1 + 5.4445337127618e-13
isoAdvection: After conservative bounding: min(alpha) = -1.6913553890774e-17, max(alpha) = 1 + 5.4445337127618e-13
isoAdvection: time consumption = 22%
Phase-1 volume fraction = 0.012968910267778  Min(alpha.water) = -1.6913553890774e-17  1 - Max(alpha.water) = -5.4445337127618e-13
ExecutionTime = 1.76 s  ClockTime = 2 s

Courant Number mean: 0.37499999999998 max: 0.375
Interface Courant Number mean: 0.0021874999999998 max: 0.375
deltaT = 0.0125
Time = 3.9875

Number of isoAdvector surface cells = 38
isoAdvection: Before conservative bounding: min(alpha) = -8.9995462679293e-09, max(alpha) = 1 + 3.4162608784305e-05
isoAdvection: After conservative bounding: min(alpha) = -2.0816681711722e-17, max(alpha) = 1 + 2.2204460492503e-16
isoAdvection: time consumption = 22%
Phase-1 volume fraction = 0.012968910267778  Min(alpha.water) = -2.0816681711722e-17  1 - Max(alpha.water) = -2.2204460492503e-16
ExecutionTime = 1.77 s  ClockTime = 2 s

Courant Number mean: 0.37499999999998 max: 0.37500000000001
Interface Courant Number mean: 0.0020624999999998 max: 0.375
deltaT = 0.0125
Time = 4

Number of isoAdvector surface cells = 42
isoAdvection: Before conservative bounding: min(alpha) = -0.0056249575419619, max(alpha) = 1 + 0.0017701257628684
isoAdvection: After conservative bounding: min(alpha) = -1.2403272853234e-16, max(alpha) = 1 + 0
isoAdvection: time consumption = 22%
Phase-1 volume fraction = 0.012968910267778  Min(alpha.water) = -1.2403272853234e-16  1 - Max(alpha.water) = 0
ExecutionTime = 1.78 s  ClockTime = 2 s

End

