/*---------------------------------------------------------------------------*\
  =========                 |
  \\      /  F ield         | OpenFOAM: The Open Source CFD Toolbox
   \\    /   O peration     | Website:  https://openfoam.org
    \\  /    A nd           | Version:  7
     \\/     M anipulation  |
\*---------------------------------------------------------------------------*/
Build  : 7-1ff648926f77
Exec   : setAlphaField
Date   : Jun 21 2021
Time   : 15:51:22
Host   : "ubuntu"
PID    : 7623
I/O    : uncollated
Case   : /home/user/Desktop/OFSolvers/isoAdvector/baseCase
nProcs : 1
sigFpe : Enabling floating point exception trapping (FOAM_SIGFPE).
fileModificationChecking : Monitoring run-time modified files using timeStampMaster (fileModificationSkew 10)
allowSystemOperations : Allowing user-supplied system call operations

// * * * * * * * * * * * * * * * * * * * * * * * * * * * * * * * * * * * * * //
Create time

--> FOAM Warning : 
    From function void* Foam::dlOpen(const Foam::fileName&, bool)
    in file POSIX.C at line 1251
    dlopen error : libVOFInterpolationSchemes.so: cannot open shared object file: No such file or directory
--> FOAM Warning : 
    From function bool Foam::dlLibraryTable::open(const Foam::fileName&, bool)
    in file db/dynamicLibrary/dlLibraryTable/dlLibraryTable.C at line 105
    could not load "libVOFInterpolationSchemes.so"
Create mesh for time = 0

Reading setAlphaFieldDict

Reading field alpha.water

Processing type 'cylinder'

Phase-1 volume fraction = 0.012968910267778  Min(alpha.water) = 0  Max(alpha.water) - 1 = 0

End

